{
   "completed_at" : "20240717T111632Z",
   "completed_status" : "Success",
   "created_at" : "20240716T024136Z",
   "current_step" : 6,
   "eplusout_err" : "Program Version,EnergyPlus, Version 23.2.0-7636e6b3e9, YMD=2024.07.17 07:13,\n   ************* Beginning Zone Sizing Calculations\n   ** Warning ** ProcessScheduleInput: Schedule:Day:Interval=\"FRACTION LATENT DEFAULTDAY - 0.05\", Blank Schedule Type Limits Name input -- will not be validated.\n   ** Warning ** ProcessScheduleInput: Schedule:Day:Interval=\"FRACTION SENSIBLE DEFAULTDAY - 0.2\", Blank Schedule Type Limits Name input -- will not be validated.\n   ** Warning ** ProcessScheduleInput: Schedule:Day:Interval=\"SCHEDULE DAY 47\", Blank Schedule Type Limits Name input -- will not be validated.\n   ** Warning ** ProcessScheduleInput: Schedule:Day:Interval=\"SCHEDULE DAY 48\", Blank Schedule Type Limits Name input -- will not be validated.\n   ** Warning ** ProcessScheduleInput: Schedule:Year=\"0.05 HOT WATER LATENT FRACTION\", Blank Schedule Type Limits Name input -- will not be validated.\n   ** Warning ** ProcessScheduleInput: Schedule:Year=\"0.2 HOT WATER SENSIBLE FRACTION\", Blank Schedule Type Limits Name input -- will not be validated.\n   ** Warning ** ProcessScheduleInput: Schedule:Year=\"FRACTION SENSIBLE - 0.05\", Blank Schedule Type Limits Name input -- will not be validated.\n   ** Warning ** ProcessScheduleInput: Schedule:Year=\"FRACTION SENSIBLE - 0.2\", Blank Schedule Type Limits Name input -- will not be validated.\n   ** Warning ** ProcessScheduleInput: Schedule:Constant=\"ALWAYS OFF DISCRETE\", Blank Schedule Type Limits Name input -- will not be validated.\n   ** Warning ** ProcessScheduleInput: Schedule:Constant=\"ALWAYS ON CONTINUOUS\", Blank Schedule Type Limits Name input -- will not be validated.\n   ** Warning ** GetHTSurfaceData: Surfaces with interface to Ground found but no \"Ground Temperatures\" were input.\n   **   ~~~   ** Found first in surface=SURFACE 54\n   **   ~~~   ** Defaults, constant throughout the year of (18.0) will be used.\n   ** Warning ** CheckUsedConstructions: There are 14 nominally unused constructions in input.\n   **   ~~~   ** For explicit details on each unused construction, use Output:Diagnostics,DisplayExtraWarnings;\n   ** Warning ** GetDXCoils: Coil:Heating:DX:SingleSpeed=\"PTHP 1 SPD DX HTG COIL\" curve values\n   **   ~~~   ** ... Heating Capacity Function of Temperature Curve Name = OS:CURVE:BIQUADRATIC 11 output is not equal to 1.0 (+ or - 10%) at rated conditions.\n   **   ~~~   ** ... Curve output at rated conditions = 0.786\n   ** Warning ** GetDXCoils: Coil:Heating:DX:SingleSpeed=\"PTHP 1 SPD DX HTG COIL 42\" curve values\n   **   ~~~   ** ... Heating Capacity Function of Temperature Curve Name = OS:CURVE:BIQUADRATIC 11 output is not equal to 1.0 (+ or - 10%) at rated conditions.\n   **   ~~~   ** ... Curve output at rated conditions = 0.786\n   ** Warning ** GetDXCoils: Coil:Heating:DX:SingleSpeed=\"PTHP 1 SPD DX HTG COIL 38\" curve values\n   **   ~~~   ** ... Heating Capacity Function of Temperature Curve Name = OS:CURVE:BIQUADRATIC 11 output is not equal to 1.0 (+ or - 10%) at rated conditions.\n   **   ~~~   ** ... Curve output at rated conditions = 0.786\n   ** Warning ** GetDXCoils: Coil:Heating:DX:SingleSpeed=\"PTHP 1 SPD DX HTG COIL 40\" curve values\n   **   ~~~   ** ... Heating Capacity Function of Temperature Curve Name = OS:CURVE:BIQUADRATIC 11 output is not equal to 1.0 (+ or - 10%) at rated conditions.\n   **   ~~~   ** ... Curve output at rated conditions = 0.786\n   ** Warning ** GetDXCoils: Coil:Heating:DX:SingleSpeed=\"PTHP 1 SPD DX HTG COIL 37\" curve values\n   **   ~~~   ** ... Heating Capacity Function of Temperature Curve Name = OS:CURVE:BIQUADRATIC 11 output is not equal to 1.0 (+ or - 10%) at rated conditions.\n   **   ~~~   ** ... Curve output at rated conditions = 0.786\n   ** Warning ** GetDXCoils: Coil:Heating:DX:SingleSpeed=\"PTHP 1 SPD DX HTG COIL 39\" curve values\n   **   ~~~   ** ... Heating Capacity Function of Temperature Curve Name = OS:CURVE:BIQUADRATIC 11 output is not equal to 1.0 (+ or - 10%) at rated conditions.\n   **   ~~~   ** ... Curve output at rated conditions = 0.786\n   ** Warning ** GetDXCoils: Coil:Heating:DX:SingleSpeed=\"PTHP 1 SPD DX HTG COIL 43\" curve values\n   **   ~~~   ** ... Heating Capacity Function of Temperature Curve Name = OS:CURVE:BIQUADRATIC 11 output is not equal to 1.0 (+ or - 10%) at rated conditions.\n   **   ~~~   ** ... Curve output at rated conditions = 0.786\n   ** Warning ** GetDXCoils: Coil:Heating:DX:SingleSpeed=\"PTHP 1 SPD DX HTG COIL 35\" curve values\n   **   ~~~   ** ... Heating Capacity Function of Temperature Curve Name = OS:CURVE:BIQUADRATIC 11 output is not equal to 1.0 (+ or - 10%) at rated conditions.\n   **   ~~~   ** ... Curve output at rated conditions = 0.786\n   ** Warning ** GetDXCoils: Coil:Heating:DX:SingleSpeed=\"PTHP 1 SPD DX HTG COIL 41\" curve values\n   **   ~~~   ** ... Heating Capacity Function of Temperature Curve Name = OS:CURVE:BIQUADRATIC 11 output is not equal to 1.0 (+ or - 10%) at rated conditions.\n   **   ~~~   ** ... Curve output at rated conditions = 0.786\n   ** Warning ** GetDXCoils: Coil:Heating:DX:SingleSpeed=\"PTHP 1 SPD DX HTG COIL 36\" curve values\n   **   ~~~   ** ... Heating Capacity Function of Temperature Curve Name = OS:CURVE:BIQUADRATIC 11 output is not equal to 1.0 (+ or - 10%) at rated conditions.\n   **   ~~~   ** ... Curve output at rated conditions = 0.786\n   ** Warning ** GetDXCoils: Coil:Heating:DX:SingleSpeed=\"PTHP 1 SPD DX HTG COIL 6\" curve values\n   **   ~~~   ** ... Heating Capacity Function of Temperature Curve Name = OS:CURVE:BIQUADRATIC 11 output is not equal to 1.0 (+ or - 10%) at rated conditions.\n   **   ~~~   ** ... Curve output at rated conditions = 0.786\n   ** Warning ** GetDXCoils: Coil:Heating:DX:SingleSpeed=\"PTHP 1 SPD DX HTG COIL 28\" curve values\n   **   ~~~   ** ... Heating Capacity Function of Temperature Curve Name = OS:CURVE:BIQUADRATIC 11 output is not equal to 1.0 (+ or - 10%) at rated conditions.\n   **   ~~~   ** ... Curve output at rated conditions = 0.786\n   ** Warning ** GetDXCoils: Coil:Heating:DX:SingleSpeed=\"PTHP 1 SPD DX HTG COIL 8\" curve values\n   **   ~~~   ** ... Heating Capacity Function of Temperature Curve Name = OS:CURVE:BIQUADRATIC 11 output is not equal to 1.0 (+ or - 10%) at rated conditions.\n   **   ~~~   ** ... Curve output at rated conditions = 0.786\n   ** Warning ** GetDXCoils: Coil:Heating:DX:SingleSpeed=\"PTHP 1 SPD DX HTG COIL 5\" curve values\n   **   ~~~   ** ... Heating Capacity Function of Temperature Curve Name = OS:CURVE:BIQUADRATIC 11 output is not equal to 1.0 (+ or - 10%) at rated conditions.\n   **   ~~~   ** ... Curve output at rated conditions = 0.786\n   ** Warning ** GetDXCoils: Coil:Heating:DX:SingleSpeed=\"PTHP 1 SPD DX HTG COIL 7\" curve values\n   **   ~~~   ** ... Heating Capacity Function of Temperature Curve Name = OS:CURVE:BIQUADRATIC 11 output is not equal to 1.0 (+ or - 10%) at rated conditions.\n   **   ~~~   ** ... Curve output at rated conditions = 0.786\n   ** Warning ** GetDXCoils: Coil:Heating:DX:SingleSpeed=\"PTHP 1 SPD DX HTG COIL 9\" curve values\n   **   ~~~   ** ... Heating Capacity Function of Temperature Curve Name = OS:CURVE:BIQUADRATIC 11 output is not equal to 1.0 (+ or - 10%) at rated conditions.\n   **   ~~~   ** ... Curve output at rated conditions = 0.786\n   ** Warning ** GetDXCoils: Coil:Heating:DX:SingleSpeed=\"PTHP 1 SPD DX HTG COIL 3\" curve values\n   **   ~~~   ** ... Heating Capacity Function of Temperature Curve Name = OS:CURVE:BIQUADRATIC 11 output is not equal to 1.0 (+ or - 10%) at rated conditions.\n   **   ~~~   ** ... Curve output at rated conditions = 0.786\n   ** Warning ** GetDXCoils: Coil:Heating:DX:SingleSpeed=\"PTHP 1 SPD DX HTG COIL 1\" curve values\n   **   ~~~   ** ... Heating Capacity Function of Temperature Curve Name = OS:CURVE:BIQUADRATIC 11 output is not equal to 1.0 (+ or - 10%) at rated conditions.\n   **   ~~~   ** ... Curve output at rated conditions = 0.786\n   ** Warning ** GetDXCoils: Coil:Heating:DX:SingleSpeed=\"PTHP 1 SPD DX HTG COIL 4\" curve values\n   **   ~~~   ** ... Heating Capacity Function of Temperature Curve Name = OS:CURVE:BIQUADRATIC 11 output is not equal to 1.0 (+ or - 10%) at rated conditions.\n   **   ~~~   ** ... Curve output at rated conditions = 0.786\n   ** Warning ** GetDXCoils: Coil:Heating:DX:SingleSpeed=\"PTHP 1 SPD DX HTG COIL 2\" curve values\n   **   ~~~   ** ... Heating Capacity Function of Temperature Curve Name = OS:CURVE:BIQUADRATIC 11 output is not equal to 1.0 (+ or - 10%) at rated conditions.\n   **   ~~~   ** ... Curve output at rated conditions = 0.786\n   ** Warning ** GetDXCoils: Coil:Heating:DX:SingleSpeed=\"PTHP 1 SPD DX HTG COIL 26\" curve values\n   **   ~~~   ** ... Heating Capacity Function of Temperature Curve Name = OS:CURVE:BIQUADRATIC 11 output is not equal to 1.0 (+ or - 10%) at rated conditions.\n   **   ~~~   ** ... Curve output at rated conditions = 0.786\n   ** Warning ** GetDXCoils: Coil:Heating:DX:SingleSpeed=\"PTHP 1 SPD DX HTG COIL 22\" curve values\n   **   ~~~   ** ... Heating Capacity Function of Temperature Curve Name = OS:CURVE:BIQUADRATIC 11 output is not equal to 1.0 (+ or - 10%) at rated conditions.\n   **   ~~~   ** ... Curve output at rated conditions = 0.786\n   ** Warning ** GetDXCoils: Coil:Heating:DX:SingleSpeed=\"PTHP 1 SPD DX HTG COIL 34\" curve values\n   **   ~~~   ** ... Heating Capacity Function of Temperature Curve Name = OS:CURVE:BIQUADRATIC 11 output is not equal to 1.0 (+ or - 10%) at rated conditions.\n   **   ~~~   ** ... Curve output at rated conditions = 0.786\n   ** Warning ** GetDXCoils: Coil:Heating:DX:SingleSpeed=\"PTHP 1 SPD DX HTG COIL 21\" curve values\n   **   ~~~   ** ... Heating Capacity Function of Temperature Curve Name = OS:CURVE:BIQUADRATIC 11 output is not equal to 1.0 (+ or - 10%) at rated conditions.\n   **   ~~~   ** ... Curve output at rated conditions = 0.786\n   ** Warning ** GetDXCoils: Coil:Heating:DX:SingleSpeed=\"PTHP 1 SPD DX HTG COIL 24\" curve values\n   **   ~~~   ** ... Heating Capacity Function of Temperature Curve Name = OS:CURVE:BIQUADRATIC 11 output is not equal to 1.0 (+ or - 10%) at rated conditions.\n   **   ~~~   ** ... Curve output at rated conditions = 0.786\n   ** Warning ** GetDXCoils: Coil:Heating:DX:SingleSpeed=\"PTHP 1 SPD DX HTG COIL 12\" curve values\n   **   ~~~   ** ... Heating Capacity Function of Temperature Curve Name = OS:CURVE:BIQUADRATIC 11 output is not equal to 1.0 (+ or - 10%) at rated conditions.\n   **   ~~~   ** ... Curve output at rated conditions = 0.786\n   ** Warning ** GetDXCoils: Coil:Heating:DX:SingleSpeed=\"PTHP 1 SPD DX HTG COIL 23\" curve values\n   **   ~~~   ** ... Heating Capacity Function of Temperature Curve Name = OS:CURVE:BIQUADRATIC 11 output is not equal to 1.0 (+ or - 10%) at rated conditions.\n   **   ~~~   ** ... Curve output at rated conditions = 0.786\n   ** Warning ** GetDXCoils: Coil:Heating:DX:SingleSpeed=\"PTHP 1 SPD DX HTG COIL 14\" curve values\n   **   ~~~   ** ... Heating Capacity Function of Temperature Curve Name = OS:CURVE:BIQUADRATIC 11 output is not equal to 1.0 (+ or - 10%) at rated conditions.\n   **   ~~~   ** ... Curve output at rated conditions = 0.786\n   ** Warning ** GetDXCoils: Coil:Heating:DX:SingleSpeed=\"PTHP 1 SPD DX HTG COIL 17\" curve values\n   **   ~~~   ** ... Heating Capacity Function of Temperature Curve Name = OS:CURVE:BIQUADRATIC 11 output is not equal to 1.0 (+ or - 10%) at rated conditions.\n   **   ~~~   ** ... Curve output at rated conditions = 0.786\n   ** Warning ** GetDXCoils: Coil:Heating:DX:SingleSpeed=\"PTHP 1 SPD DX HTG COIL 20\" curve values\n   **   ~~~   ** ... Heating Capacity Function of Temperature Curve Name = OS:CURVE:BIQUADRATIC 11 output is not equal to 1.0 (+ or - 10%) at rated conditions.\n   **   ~~~   ** ... Curve output at rated conditions = 0.786\n   ** Warning ** GetDXCoils: Coil:Heating:DX:SingleSpeed=\"PTHP 1 SPD DX HTG COIL 25\" curve values\n   **   ~~~   ** ... Heating Capacity Function of Temperature Curve Name = OS:CURVE:BIQUADRATIC 11 output is not equal to 1.0 (+ or - 10%) at rated conditions.\n   **   ~~~   ** ... Curve output at rated conditions = 0.786\n   ** Warning ** GetDXCoils: Coil:Heating:DX:SingleSpeed=\"PTHP 1 SPD DX HTG COIL 15\" curve values\n   **   ~~~   ** ... Heating Capacity Function of Temperature Curve Name = OS:CURVE:BIQUADRATIC 11 output is not equal to 1.0 (+ or - 10%) at rated conditions.\n   **   ~~~   ** ... Curve output at rated conditions = 0.786\n   ** Warning ** GetDXCoils: Coil:Heating:DX:SingleSpeed=\"PTHP 1 SPD DX HTG COIL 18\" curve values\n   **   ~~~   ** ... Heating Capacity Function of Temperature Curve Name = OS:CURVE:BIQUADRATIC 11 output is not equal to 1.0 (+ or - 10%) at rated conditions.\n   **   ~~~   ** ... Curve output at rated conditions = 0.786\n   ** Warning ** GetDXCoils: Coil:Heating:DX:SingleSpeed=\"PTHP 1 SPD DX HTG COIL 27\" curve values\n   **   ~~~   ** ... Heating Capacity Function of Temperature Curve Name = OS:CURVE:BIQUADRATIC 11 output is not equal to 1.0 (+ or - 10%) at rated conditions.\n   **   ~~~   ** ... Curve output at rated conditions = 0.786\n   ** Warning ** GetDXCoils: Coil:Heating:DX:SingleSpeed=\"PTHP 1 SPD DX HTG COIL 13\" curve values\n   **   ~~~   ** ... Heating Capacity Function of Temperature Curve Name = OS:CURVE:BIQUADRATIC 11 output is not equal to 1.0 (+ or - 10%) at rated conditions.\n   **   ~~~   ** ... Curve output at rated conditions = 0.786\n   ** Warning ** GetDXCoils: Coil:Heating:DX:SingleSpeed=\"PTHP 1 SPD DX HTG COIL 16\" curve values\n   **   ~~~   ** ... Heating Capacity Function of Temperature Curve Name = OS:CURVE:BIQUADRATIC 11 output is not equal to 1.0 (+ or - 10%) at rated conditions.\n   **   ~~~   ** ... Curve output at rated conditions = 0.786\n   ** Warning ** GetDXCoils: Coil:Heating:DX:SingleSpeed=\"PTHP 1 SPD DX HTG COIL 19\" curve values\n   **   ~~~   ** ... Heating Capacity Function of Temperature Curve Name = OS:CURVE:BIQUADRATIC 11 output is not equal to 1.0 (+ or - 10%) at rated conditions.\n   **   ~~~   ** ... Curve output at rated conditions = 0.786\n   ** Warning ** GetDXCoils: Coil:Heating:DX:SingleSpeed=\"PTHP 1 SPD DX HTG COIL 10\" curve values\n   **   ~~~   ** ... Heating Capacity Function of Temperature Curve Name = OS:CURVE:BIQUADRATIC 11 output is not equal to 1.0 (+ or - 10%) at rated conditions.\n   **   ~~~   ** ... Curve output at rated conditions = 0.786\n   ** Warning ** GetDXCoils: Coil:Heating:DX:SingleSpeed=\"PTHP 1 SPD DX HTG COIL 11\" curve values\n   **   ~~~   ** ... Heating Capacity Function of Temperature Curve Name = OS:CURVE:BIQUADRATIC 11 output is not equal to 1.0 (+ or - 10%) at rated conditions.\n   **   ~~~   ** ... Curve output at rated conditions = 0.786\n   ** Warning ** GetDXCoils: Coil:Heating:DX:SingleSpeed=\"PTHP 1 SPD DX HTG COIL 30\" curve values\n   **   ~~~   ** ... Heating Capacity Function of Temperature Curve Name = OS:CURVE:BIQUADRATIC 11 output is not equal to 1.0 (+ or - 10%) at rated conditions.\n   **   ~~~   ** ... Curve output at rated conditions = 0.786\n   ** Warning ** GetDXCoils: Coil:Heating:DX:SingleSpeed=\"PTHP 1 SPD DX HTG COIL 33\" curve values\n   **   ~~~   ** ... Heating Capacity Function of Temperature Curve Name = OS:CURVE:BIQUADRATIC 11 output is not equal to 1.0 (+ or - 10%) at rated conditions.\n   **   ~~~   ** ... Curve output at rated conditions = 0.786\n   ** Warning ** GetDXCoils: Coil:Heating:DX:SingleSpeed=\"PTHP 1 SPD DX HTG COIL 31\" curve values\n   **   ~~~   ** ... Heating Capacity Function of Temperature Curve Name = OS:CURVE:BIQUADRATIC 11 output is not equal to 1.0 (+ or - 10%) at rated conditions.\n   **   ~~~   ** ... Curve output at rated conditions = 0.786\n   ** Warning ** GetDXCoils: Coil:Heating:DX:SingleSpeed=\"PTHP 1 SPD DX HTG COIL 29\" curve values\n   **   ~~~   ** ... Heating Capacity Function of Temperature Curve Name = OS:CURVE:BIQUADRATIC 11 output is not equal to 1.0 (+ or - 10%) at rated conditions.\n   **   ~~~   ** ... Curve output at rated conditions = 0.786\n   ** Warning ** GetDXCoils: Coil:Heating:DX:SingleSpeed=\"PTHP 1 SPD DX HTG COIL 32\" curve values\n   **   ~~~   ** ... Heating Capacity Function of Temperature Curve Name = OS:CURVE:BIQUADRATIC 11 output is not equal to 1.0 (+ or - 10%) at rated conditions.\n   **   ~~~   ** ... Curve output at rated conditions = 0.786\n   ** Warning ** ZoneHVAC:PackagedTerminalHeatPump = PTHP\n   **   ~~~   ** Input for Heating Supply Air Flow Rate Method = SupplyAirFlowRate.\n   **   ~~~   ** Suspicious Heating Supply Air Flow Rate = 2.2204460E-016 when heating coil is present.\n   ** Warning ** ZoneHVAC:PackagedTerminalHeatPump = PTHP 42\n   **   ~~~   ** Input for Heating Supply Air Flow Rate Method = SupplyAirFlowRate.\n   **   ~~~   ** Suspicious Heating Supply Air Flow Rate = 2.2204460E-016 when heating coil is present.\n   ** Warning ** ZoneHVAC:PackagedTerminalHeatPump = PTHP 38\n   **   ~~~   ** Input for Heating Supply Air Flow Rate Method = SupplyAirFlowRate.\n   **   ~~~   ** Suspicious Heating Supply Air Flow Rate = 2.2204460E-016 when heating coil is present.\n   ** Warning ** ZoneHVAC:PackagedTerminalHeatPump = PTHP 40\n   **   ~~~   ** Input for Heating Supply Air Flow Rate Method = SupplyAirFlowRate.\n   **   ~~~   ** Suspicious Heating Supply Air Flow Rate = 2.2204460E-016 when heating coil is present.\n   ** Warning ** ZoneHVAC:PackagedTerminalHeatPump = PTHP 37\n   **   ~~~   ** Input for Heating Supply Air Flow Rate Method = SupplyAirFlowRate.\n   **   ~~~   ** Suspicious Heating Supply Air Flow Rate = 2.2204460E-016 when heating coil is present.\n   ** Warning ** ZoneHVAC:PackagedTerminalHeatPump = PTHP 39\n   **   ~~~   ** Input for Heating Supply Air Flow Rate Method = SupplyAirFlowRate.\n   **   ~~~   ** Suspicious Heating Supply Air Flow Rate = 2.2204460E-016 when heating coil is present.\n   ** Warning ** ZoneHVAC:PackagedTerminalHeatPump = PTHP 43\n   **   ~~~   ** Input for Heating Supply Air Flow Rate Method = SupplyAirFlowRate.\n   **   ~~~   ** Suspicious Heating Supply Air Flow Rate = 2.2204460E-016 when heating coil is present.\n   ** Warning ** ZoneHVAC:PackagedTerminalHeatPump = PTHP 35\n   **   ~~~   ** Input for Heating Supply Air Flow Rate Method = SupplyAirFlowRate.\n   **   ~~~   ** Suspicious Heating Supply Air Flow Rate = 2.2204460E-016 when heating coil is present.\n   ** Warning ** ZoneHVAC:PackagedTerminalHeatPump = PTHP 41\n   **   ~~~   ** Input for Heating Supply Air Flow Rate Method = SupplyAirFlowRate.\n   **   ~~~   ** Suspicious Heating Supply Air Flow Rate = 2.2204460E-016 when heating coil is present.\n   ** Warning ** ZoneHVAC:PackagedTerminalHeatPump = PTHP 36\n   **   ~~~   ** Input for Heating Supply Air Flow Rate Method = SupplyAirFlowRate.\n   **   ~~~   ** Suspicious Heating Supply Air Flow Rate = 2.2204460E-016 when heating coil is present.\n   ** Warning ** ZoneHVAC:PackagedTerminalHeatPump = PTHP 6\n   **   ~~~   ** Input for Heating Supply Air Flow Rate Method = SupplyAirFlowRate.\n   **   ~~~   ** Suspicious Heating Supply Air Flow Rate = 2.2204460E-016 when heating coil is present.\n   ** Warning ** ZoneHVAC:PackagedTerminalHeatPump = PTHP 28\n   **   ~~~   ** Input for Heating Supply Air Flow Rate Method = SupplyAirFlowRate.\n   **   ~~~   ** Suspicious Heating Supply Air Flow Rate = 2.2204460E-016 when heating coil is present.\n   ** Warning ** ZoneHVAC:PackagedTerminalHeatPump = PTHP 8\n   **   ~~~   ** Input for Heating Supply Air Flow Rate Method = SupplyAirFlowRate.\n   **   ~~~   ** Suspicious Heating Supply Air Flow Rate = 2.2204460E-016 when heating coil is present.\n   ** Warning ** ZoneHVAC:PackagedTerminalHeatPump = PTHP 5\n   **   ~~~   ** Input for Heating Supply Air Flow Rate Method = SupplyAirFlowRate.\n   **   ~~~   ** Suspicious Heating Supply Air Flow Rate = 2.2204460E-016 when heating coil is present.\n   ** Warning ** ZoneHVAC:PackagedTerminalHeatPump = PTHP 7\n   **   ~~~   ** Input for Heating Supply Air Flow Rate Method = SupplyAirFlowRate.\n   **   ~~~   ** Suspicious Heating Supply Air Flow Rate = 2.2204460E-016 when heating coil is present.\n   ** Warning ** ZoneHVAC:PackagedTerminalHeatPump = PTHP 9\n   **   ~~~   ** Input for Heating Supply Air Flow Rate Method = SupplyAirFlowRate.\n   **   ~~~   ** Suspicious Heating Supply Air Flow Rate = 2.2204460E-016 when heating coil is present.\n   ** Warning ** ZoneHVAC:PackagedTerminalHeatPump = PTHP 3\n   **   ~~~   ** Input for Heating Supply Air Flow Rate Method = SupplyAirFlowRate.\n   **   ~~~   ** Suspicious Heating Supply Air Flow Rate = 2.2204460E-016 when heating coil is present.\n   ** Warning ** ZoneHVAC:PackagedTerminalHeatPump = PTHP 1\n   **   ~~~   ** Input for Heating Supply Air Flow Rate Method = SupplyAirFlowRate.\n   **   ~~~   ** Suspicious Heating Supply Air Flow Rate = 2.2204460E-016 when heating coil is present.\n   ** Warning ** ZoneHVAC:PackagedTerminalHeatPump = PTHP 4\n   **   ~~~   ** Input for Heating Supply Air Flow Rate Method = SupplyAirFlowRate.\n   **   ~~~   ** Suspicious Heating Supply Air Flow Rate = 2.2204460E-016 when heating coil is present.\n   ** Warning ** ZoneHVAC:PackagedTerminalHeatPump = PTHP 2\n   **   ~~~   ** Input for Heating Supply Air Flow Rate Method = SupplyAirFlowRate.\n   **   ~~~   ** Suspicious Heating Supply Air Flow Rate = 2.2204460E-016 when heating coil is present.\n   ** Warning ** ZoneHVAC:PackagedTerminalHeatPump = PTHP 26\n   **   ~~~   ** Input for Heating Supply Air Flow Rate Method = SupplyAirFlowRate.\n   **   ~~~   ** Suspicious Heating Supply Air Flow Rate = 2.2204460E-016 when heating coil is present.\n   ** Warning ** ZoneHVAC:PackagedTerminalHeatPump = PTHP 22\n   **   ~~~   ** Input for Heating Supply Air Flow Rate Method = SupplyAirFlowRate.\n   **   ~~~   ** Suspicious Heating Supply Air Flow Rate = 2.2204460E-016 when heating coil is present.\n   ** Warning ** ZoneHVAC:PackagedTerminalHeatPump = PTHP 34\n   **   ~~~   ** Input for Heating Supply Air Flow Rate Method = SupplyAirFlowRate.\n   **   ~~~   ** Suspicious Heating Supply Air Flow Rate = 2.2204460E-016 when heating coil is present.\n   ** Warning ** ZoneHVAC:PackagedTerminalHeatPump = PTHP 21\n   **   ~~~   ** Input for Heating Supply Air Flow Rate Method = SupplyAirFlowRate.\n   **   ~~~   ** Suspicious Heating Supply Air Flow Rate = 2.2204460E-016 when heating coil is present.\n   ** Warning ** ZoneHVAC:PackagedTerminalHeatPump = PTHP 24\n   **   ~~~   ** Input for Heating Supply Air Flow Rate Method = SupplyAirFlowRate.\n   **   ~~~   ** Suspicious Heating Supply Air Flow Rate = 2.2204460E-016 when heating coil is present.\n   ** Warning ** ZoneHVAC:PackagedTerminalHeatPump = PTHP 12\n   **   ~~~   ** Input for Heating Supply Air Flow Rate Method = SupplyAirFlowRate.\n   **   ~~~   ** Suspicious Heating Supply Air Flow Rate = 2.2204460E-016 when heating coil is present.\n   ** Warning ** ZoneHVAC:PackagedTerminalHeatPump = PTHP 23\n   **   ~~~   ** Input for Heating Supply Air Flow Rate Method = SupplyAirFlowRate.\n   **   ~~~   ** Suspicious Heating Supply Air Flow Rate = 2.2204460E-016 when heating coil is present.\n   ** Warning ** ZoneHVAC:PackagedTerminalHeatPump = PTHP 14\n   **   ~~~   ** Input for Heating Supply Air Flow Rate Method = SupplyAirFlowRate.\n   **   ~~~   ** Suspicious Heating Supply Air Flow Rate = 2.2204460E-016 when heating coil is present.\n   ** Warning ** ZoneHVAC:PackagedTerminalHeatPump = PTHP 17\n   **   ~~~   ** Input for Heating Supply Air Flow Rate Method = SupplyAirFlowRate.\n   **   ~~~   ** Suspicious Heating Supply Air Flow Rate = 2.2204460E-016 when heating coil is present.\n   ** Warning ** ZoneHVAC:PackagedTerminalHeatPump = PTHP 20\n   **   ~~~   ** Input for Heating Supply Air Flow Rate Method = SupplyAirFlowRate.\n   **   ~~~   ** Suspicious Heating Supply Air Flow Rate = 2.2204460E-016 when heating coil is present.\n   ** Warning ** ZoneHVAC:PackagedTerminalHeatPump = PTHP 25\n   **   ~~~   ** Input for Heating Supply Air Flow Rate Method = SupplyAirFlowRate.\n   **   ~~~   ** Suspicious Heating Supply Air Flow Rate = 2.2204460E-016 when heating coil is present.\n   ** Warning ** ZoneHVAC:PackagedTerminalHeatPump = PTHP 15\n   **   ~~~   ** Input for Heating Supply Air Flow Rate Method = SupplyAirFlowRate.\n   **   ~~~   ** Suspicious Heating Supply Air Flow Rate = 2.2204460E-016 when heating coil is present.\n   ** Warning ** ZoneHVAC:PackagedTerminalHeatPump = PTHP 18\n   **   ~~~   ** Input for Heating Supply Air Flow Rate Method = SupplyAirFlowRate.\n   **   ~~~   ** Suspicious Heating Supply Air Flow Rate = 2.2204460E-016 when heating coil is present.\n   ** Warning ** ZoneHVAC:PackagedTerminalHeatPump = PTHP 27\n   **   ~~~   ** Input for Heating Supply Air Flow Rate Method = SupplyAirFlowRate.\n   **   ~~~   ** Suspicious Heating Supply Air Flow Rate = 2.2204460E-016 when heating coil is present.\n   ** Warning ** ZoneHVAC:PackagedTerminalHeatPump = PTHP 13\n   **   ~~~   ** Input for Heating Supply Air Flow Rate Method = SupplyAirFlowRate.\n   **   ~~~   ** Suspicious Heating Supply Air Flow Rate = 2.2204460E-016 when heating coil is present.\n   ** Warning ** ZoneHVAC:PackagedTerminalHeatPump = PTHP 16\n   **   ~~~   ** Input for Heating Supply Air Flow Rate Method = SupplyAirFlowRate.\n   **   ~~~   ** Suspicious Heating Supply Air Flow Rate = 2.2204460E-016 when heating coil is present.\n   ** Warning ** ZoneHVAC:PackagedTerminalHeatPump = PTHP 19\n   **   ~~~   ** Input for Heating Supply Air Flow Rate Method = SupplyAirFlowRate.\n   **   ~~~   ** Suspicious Heating Supply Air Flow Rate = 2.2204460E-016 when heating coil is present.\n   ** Warning ** ZoneHVAC:PackagedTerminalHeatPump = PTHP 10\n   **   ~~~   ** Input for Heating Supply Air Flow Rate Method = SupplyAirFlowRate.\n   **   ~~~   ** Suspicious Heating Supply Air Flow Rate = 2.2204460E-016 when heating coil is present.\n   ** Warning ** ZoneHVAC:PackagedTerminalHeatPump = PTHP 11\n   **   ~~~   ** Input for Heating Supply Air Flow Rate Method = SupplyAirFlowRate.\n   **   ~~~   ** Suspicious Heating Supply Air Flow Rate = 2.2204460E-016 when heating coil is present.\n   ** Warning ** ZoneHVAC:PackagedTerminalHeatPump = PTHP 30\n   **   ~~~   ** Input for Heating Supply Air Flow Rate Method = SupplyAirFlowRate.\n   **   ~~~   ** Suspicious Heating Supply Air Flow Rate = 2.2204460E-016 when heating coil is present.\n   ** Warning ** ZoneHVAC:PackagedTerminalHeatPump = PTHP 33\n   **   ~~~   ** Input for Heating Supply Air Flow Rate Method = SupplyAirFlowRate.\n   **   ~~~   ** Suspicious Heating Supply Air Flow Rate = 2.2204460E-016 when heating coil is present.\n   ** Warning ** ZoneHVAC:PackagedTerminalHeatPump = PTHP 31\n   **   ~~~   ** Input for Heating Supply Air Flow Rate Method = SupplyAirFlowRate.\n   **   ~~~   ** Suspicious Heating Supply Air Flow Rate = 2.2204460E-016 when heating coil is present.\n   ** Warning ** ZoneHVAC:PackagedTerminalHeatPump = PTHP 29\n   **   ~~~   ** Input for Heating Supply Air Flow Rate Method = SupplyAirFlowRate.\n   **   ~~~   ** Suspicious Heating Supply Air Flow Rate = 2.2204460E-016 when heating coil is present.\n   ** Warning ** ZoneHVAC:PackagedTerminalHeatPump = PTHP 32\n   **   ~~~   ** Input for Heating Supply Air Flow Rate Method = SupplyAirFlowRate.\n   **   ~~~   ** Suspicious Heating Supply Air Flow Rate = 2.2204460E-016 when heating coil is present.\n   ************* Beginning Plant Sizing Calculations\n   ** Warning ** The Standard Ratings is calculated for Coil:Heating:DX:SingleSpeed = PTHP 1 SPD DX HTG COIL but not at the AHRI test condition due to curve out of bound.\n   **   ~~~   **  Review the Standard Ratings calculations in the Engineering Reference for this coil type. Also, use Output:Diagnostics, DisplayExtraWarnings for further guidance.\n   ** Warning ** Sizing: Coil:Heating:DX:SingleSpeed PTHP 1 SPD DX HTG COIL: Rated air volume flow rate per watt of rated total heating capacity is out of range.\n   **   ~~~   ** Min Rated Vol Flow Per Watt=[4.027E-005], Rated Vol Flow Per Watt=[2150016219145695.750], Max Rated Vol Flow Per Watt=[6.041E-005]. See Input-Output Reference Manual for valid range.\n   ** Warning ** Coil:Heating:DX:SingleSpeed \"PTHP 1 SPD DX HTG COIL\" - Air volume flow rate per watt of rated total heating capacity is out of range at 2140665361234832. m3/s/W.\n   **   ~~~   **  During Warmup, Environment=MONTREAL INT'L ANN CLG .4% CONDNS DB=>MWB, at Simulation time=07/21 00:00 - 00:10\n   **   ~~~   ** Expected range for VolumeFlowPerRatedTotalCapacity=[2.684E-005--8.056E-005]\n   **   ~~~   ** Possible causes include inconsistent air flow rates in system components or\n   **   ~~~   ** inconsistent supply air fan operation modes in coil and unitary system objects.\n   ** Warning ** The Standard Ratings is calculated for Coil:Heating:DX:SingleSpeed = PTHP 1 SPD DX HTG COIL 42 but not at the AHRI test condition due to curve out of bound.\n   **   ~~~   **  Review the Standard Ratings calculations in the Engineering Reference for this coil type. Also, use Output:Diagnostics, DisplayExtraWarnings for further guidance.\n   ** Warning ** Sizing: Coil:Heating:DX:SingleSpeed PTHP 1 SPD DX HTG COIL 42: Rated air volume flow rate per watt of rated total heating capacity is out of range.\n   **   ~~~   ** Min Rated Vol Flow Per Watt=[4.027E-005], Rated Vol Flow Per Watt=[2150774083813120.500], Max Rated Vol Flow Per Watt=[6.041E-005]. See Input-Output Reference Manual for valid range.\n   ** Warning ** Coil:Heating:DX:SingleSpeed \"PTHP 1 SPD DX HTG COIL 42\" - Air volume flow rate per watt of rated total heating capacity is out of range at 2141419929794648. m3/s/W.\n   **   ~~~   **  During Warmup, Environment=MONTREAL INT'L ANN CLG .4% CONDNS DB=>MWB, at Simulation time=07/21 00:00 - 00:10\n   **   ~~~   ** Expected range for VolumeFlowPerRatedTotalCapacity=[2.684E-005--8.056E-005]\n   **   ~~~   ** Possible causes include inconsistent air flow rates in system components or\n   **   ~~~   ** inconsistent supply air fan operation modes in coil and unitary system objects.\n   ** Warning ** The Standard Ratings is calculated for Coil:Heating:DX:SingleSpeed = PTHP 1 SPD DX HTG COIL 38 but not at the AHRI test condition due to curve out of bound.\n   **   ~~~   **  Review the Standard Ratings calculations in the Engineering Reference for this coil type. Also, use Output:Diagnostics, DisplayExtraWarnings for further guidance.\n   ** Warning ** Sizing: Coil:Heating:DX:SingleSpeed PTHP 1 SPD DX HTG COIL 38: Rated air volume flow rate per watt of rated total heating capacity is out of range.\n   **   ~~~   ** Min Rated Vol Flow Per Watt=[4.027E-005], Rated Vol Flow Per Watt=[2144325543340891.250], Max Rated Vol Flow Per Watt=[6.041E-005]. See Input-Output Reference Manual for valid range.\n   ** Warning ** Coil:Heating:DX:SingleSpeed \"PTHP 1 SPD DX HTG COIL 38\" - Air volume flow rate per watt of rated total heating capacity is out of range at 2134999435336747. m3/s/W.\n   **   ~~~   **  During Warmup, Environment=MONTREAL INT'L ANN CLG .4% CONDNS DB=>MWB, at Simulation time=07/21 00:00 - 00:10\n   **   ~~~   ** Expected range for VolumeFlowPerRatedTotalCapacity=[2.684E-005--8.056E-005]\n   **   ~~~   ** Possible causes include inconsistent air flow rates in system components or\n   **   ~~~   ** inconsistent supply air fan operation modes in coil and unitary system objects.\n   ** Warning ** The Standard Ratings is calculated for Coil:Heating:DX:SingleSpeed = PTHP 1 SPD DX HTG COIL 40 but not at the AHRI test condition due to curve out of bound.\n   **   ~~~   **  Review the Standard Ratings calculations in the Engineering Reference for this coil type. Also, use Output:Diagnostics, DisplayExtraWarnings for further guidance.\n   ** Warning ** Sizing: Coil:Heating:DX:SingleSpeed PTHP 1 SPD DX HTG COIL 40: Rated air volume flow rate per watt of rated total heating capacity is out of range.\n   **   ~~~   ** Min Rated Vol Flow Per Watt=[4.027E-005], Rated Vol Flow Per Watt=[1934224459891895.500], Max Rated Vol Flow Per Watt=[6.041E-005]. See Input-Output Reference Manual for valid range.\n   ** Warning ** Coil:Heating:DX:SingleSpeed \"PTHP 1 SPD DX HTG COIL 40\" - Air volume flow rate per watt of rated total heating capacity is out of range at 1925812124240143. m3/s/W.\n   **   ~~~   **  During Warmup, Environment=MONTREAL INT'L ANN CLG .4% CONDNS DB=>MWB, at Simulation time=07/21 00:00 - 00:10\n   **   ~~~   ** Expected range for VolumeFlowPerRatedTotalCapacity=[2.684E-005--8.056E-005]\n   **   ~~~   ** Possible causes include inconsistent air flow rates in system components or\n   **   ~~~   ** inconsistent supply air fan operation modes in coil and unitary system objects.\n   ** Warning ** The Standard Ratings is calculated for Coil:Heating:DX:SingleSpeed = PTHP 1 SPD DX HTG COIL 37 but not at the AHRI test condition due to curve out of bound.\n   **   ~~~   **  Review the Standard Ratings calculations in the Engineering Reference for this coil type. Also, use Output:Diagnostics, DisplayExtraWarnings for further guidance.\n   ** Warning ** Sizing: Coil:Heating:DX:SingleSpeed PTHP 1 SPD DX HTG COIL 37: Rated air volume flow rate per watt of rated total heating capacity is out of range.\n   **   ~~~   ** Min Rated Vol Flow Per Watt=[4.027E-005], Rated Vol Flow Per Watt=[1915813070197984.000], Max Rated Vol Flow Per Watt=[6.041E-005]. See Input-Output Reference Manual for valid range.\n   ** Warning ** Coil:Heating:DX:SingleSpeed \"PTHP 1 SPD DX HTG COIL 37\" - Air volume flow rate per watt of rated total heating capacity is out of range at 1907480809425405. m3/s/W.\n   **   ~~~   **  During Warmup, Environment=MONTREAL INT'L ANN CLG .4% CONDNS DB=>MWB, at Simulation time=07/21 00:00 - 00:10\n   **   ~~~   ** Expected range for VolumeFlowPerRatedTotalCapacity=[2.684E-005--8.056E-005]\n   **   ~~~   ** Possible causes include inconsistent air flow rates in system components or\n   **   ~~~   ** inconsistent supply air fan operation modes in coil and unitary system objects.\n   ** Warning ** The Standard Ratings is calculated for Coil:Heating:DX:SingleSpeed = PTHP 1 SPD DX HTG COIL 39 but not at the AHRI test condition due to curve out of bound.\n   **   ~~~   **  Review the Standard Ratings calculations in the Engineering Reference for this coil type. Also, use Output:Diagnostics, DisplayExtraWarnings for further guidance.\n   ** Warning ** Sizing: Coil:Heating:DX:SingleSpeed PTHP 1 SPD DX HTG COIL 39: Rated air volume flow rate per watt of rated total heating capacity is out of range.\n   **   ~~~   ** Min Rated Vol Flow Per Watt=[4.027E-005], Rated Vol Flow Per Watt=[2180396586189225.000], Max Rated Vol Flow Per Watt=[6.041E-005]. See Input-Output Reference Manual for valid range.\n   ** Warning ** Coil:Heating:DX:SingleSpeed \"PTHP 1 SPD DX HTG COIL 39\" - Air volume flow rate per watt of rated total heating capacity is out of range at 2170913597881868. m3/s/W.\n   **   ~~~   **  During Warmup, Environment=MONTREAL INT'L ANN CLG .4% CONDNS DB=>MWB, at Simulation time=07/21 00:00 - 00:10\n   **   ~~~   ** Expected range for VolumeFlowPerRatedTotalCapacity=[2.684E-005--8.056E-005]\n   **   ~~~   ** Possible causes include inconsistent air flow rates in system components or\n   **   ~~~   ** inconsistent supply air fan operation modes in coil and unitary system objects.\n   ** Warning ** The Standard Ratings is calculated for Coil:Heating:DX:SingleSpeed = PTHP 1 SPD DX HTG COIL 43 but not at the AHRI test condition due to curve out of bound.\n   **   ~~~   **  Review the Standard Ratings calculations in the Engineering Reference for this coil type. Also, use Output:Diagnostics, DisplayExtraWarnings for further guidance.\n   ** Warning ** Sizing: Coil:Heating:DX:SingleSpeed PTHP 1 SPD DX HTG COIL 43: Rated air volume flow rate per watt of rated total heating capacity is out of range.\n   **   ~~~   ** Min Rated Vol Flow Per Watt=[4.027E-005], Rated Vol Flow Per Watt=[2180560642079179.750], Max Rated Vol Flow Per Watt=[6.041E-005]. See Input-Output Reference Manual for valid range.\n   ** Warning ** Coil:Heating:DX:SingleSpeed \"PTHP 1 SPD DX HTG COIL 43\" - Air volume flow rate per watt of rated total heating capacity is out of range at 2171076940259384. m3/s/W.\n   **   ~~~   **  During Warmup, Environment=MONTREAL INT'L ANN CLG .4% CONDNS DB=>MWB, at Simulation time=07/21 00:00 - 00:10\n   **   ~~~   ** Expected range for VolumeFlowPerRatedTotalCapacity=[2.684E-005--8.056E-005]\n   **   ~~~   ** Possible causes include inconsistent air flow rates in system components or\n   **   ~~~   ** inconsistent supply air fan operation modes in coil and unitary system objects.\n   ** Warning ** The Standard Ratings is calculated for Coil:Heating:DX:SingleSpeed = PTHP 1 SPD DX HTG COIL 35 but not at the AHRI test condition due to curve out of bound.\n   **   ~~~   **  Review the Standard Ratings calculations in the Engineering Reference for this coil type. Also, use Output:Diagnostics, DisplayExtraWarnings for further guidance.\n   ** Warning ** Sizing: Coil:Heating:DX:SingleSpeed PTHP 1 SPD DX HTG COIL 35: Rated air volume flow rate per watt of rated total heating capacity is out of range.\n   **   ~~~   ** Min Rated Vol Flow Per Watt=[4.027E-005], Rated Vol Flow Per Watt=[1935645638171899.500], Max Rated Vol Flow Per Watt=[6.041E-005]. See Input-Output Reference Manual for valid range.\n   ** Warning ** Coil:Heating:DX:SingleSpeed \"PTHP 1 SPD DX HTG COIL 35\" - Air volume flow rate per watt of rated total heating capacity is out of range at 1927227121526700. m3/s/W.\n   **   ~~~   **  During Warmup, Environment=MONTREAL INT'L ANN CLG .4% CONDNS DB=>MWB, at Simulation time=07/21 00:00 - 00:10\n   **   ~~~   ** Expected range for VolumeFlowPerRatedTotalCapacity=[2.684E-005--8.056E-005]\n   **   ~~~   ** Possible causes include inconsistent air flow rates in system components or\n   **   ~~~   ** inconsistent supply air fan operation modes in coil and unitary system objects.\n   ** Warning ** The Standard Ratings is calculated for Coil:Heating:DX:SingleSpeed = PTHP 1 SPD DX HTG COIL 41 but not at the AHRI test condition due to curve out of bound.\n   **   ~~~   **  Review the Standard Ratings calculations in the Engineering Reference for this coil type. Also, use Output:Diagnostics, DisplayExtraWarnings for further guidance.\n   ** Warning ** Sizing: Coil:Heating:DX:SingleSpeed PTHP 1 SPD DX HTG COIL 41: Rated air volume flow rate per watt of rated total heating capacity is out of range.\n   **   ~~~   ** Min Rated Vol Flow Per Watt=[4.027E-005], Rated Vol Flow Per Watt=[7378871380165892.000], Max Rated Vol Flow Per Watt=[6.041E-005]. See Input-Output Reference Manual for valid range.\n   ** Warning ** Coil:Heating:DX:SingleSpeed \"PTHP 1 SPD DX HTG COIL 41\" - Air volume flow rate per watt of rated total heating capacity is out of range at 7346779167463477. m3/s/W.\n   **   ~~~   **  During Warmup, Environment=MONTREAL INT'L ANN CLG .4% CONDNS DB=>MWB, at Simulation time=07/21 00:00 - 00:10\n   **   ~~~   ** Expected range for VolumeFlowPerRatedTotalCapacity=[2.684E-005--8.056E-005]\n   **   ~~~   ** Possible causes include inconsistent air flow rates in system components or\n   **   ~~~   ** inconsistent supply air fan operation modes in coil and unitary system objects.\n   ** Warning ** The Standard Ratings is calculated for Coil:Heating:DX:SingleSpeed = PTHP 1 SPD DX HTG COIL 36 but not at the AHRI test condition due to curve out of bound.\n   **   ~~~   **  Review the Standard Ratings calculations in the Engineering Reference for this coil type. Also, use Output:Diagnostics, DisplayExtraWarnings for further guidance.\n   ** Warning ** Sizing: Coil:Heating:DX:SingleSpeed PTHP 1 SPD DX HTG COIL 36: Rated air volume flow rate per watt of rated total heating capacity is out of range.\n   **   ~~~   ** Min Rated Vol Flow Per Watt=[4.027E-005], Rated Vol Flow Per Watt=[1918223840976251.000], Max Rated Vol Flow Per Watt=[6.041E-005]. See Input-Output Reference Manual for valid range.\n   ** Warning ** Coil:Heating:DX:SingleSpeed \"PTHP 1 SPD DX HTG COIL 36\" - Air volume flow rate per watt of rated total heating capacity is out of range at 1909881095271139. m3/s/W.\n   **   ~~~   **  During Warmup, Environment=MONTREAL INT'L ANN CLG .4% CONDNS DB=>MWB, at Simulation time=07/21 00:00 - 00:10\n   **   ~~~   ** Expected range for VolumeFlowPerRatedTotalCapacity=[2.684E-005--8.056E-005]\n   **   ~~~   ** Possible causes include inconsistent air flow rates in system components or\n   **   ~~~   ** inconsistent supply air fan operation modes in coil and unitary system objects.\n   ** Warning ** The Standard Ratings is calculated for Coil:Heating:DX:SingleSpeed = PTHP 1 SPD DX HTG COIL 6 but not at the AHRI test condition due to curve out of bound.\n   **   ~~~   **  Review the Standard Ratings calculations in the Engineering Reference for this coil type. Also, use Output:Diagnostics, DisplayExtraWarnings for further guidance.\n   ** Warning ** Sizing: Coil:Heating:DX:SingleSpeed PTHP 1 SPD DX HTG COIL 6: Rated air volume flow rate per watt of rated total heating capacity is out of range.\n   **   ~~~   ** Min Rated Vol Flow Per Watt=[4.027E-005], Rated Vol Flow Per Watt=[1936038236375535.000], Max Rated Vol Flow Per Watt=[6.041E-005]. See Input-Output Reference Manual for valid range.\n   ** Warning ** Coil:Heating:DX:SingleSpeed \"PTHP 1 SPD DX HTG COIL 6\" - Air volume flow rate per watt of rated total heating capacity is out of range at 1927618012240882. m3/s/W.\n   **   ~~~   **  During Warmup, Environment=MONTREAL INT'L ANN CLG .4% CONDNS DB=>MWB, at Simulation time=07/21 00:00 - 00:10\n   **   ~~~   ** Expected range for VolumeFlowPerRatedTotalCapacity=[2.684E-005--8.056E-005]\n   **   ~~~   ** Possible causes include inconsistent air flow rates in system components or\n   **   ~~~   ** inconsistent supply air fan operation modes in coil and unitary system objects.\n   ** Warning ** The Standard Ratings is calculated for Coil:Heating:DX:SingleSpeed = PTHP 1 SPD DX HTG COIL 28 but not at the AHRI test condition due to curve out of bound.\n   **   ~~~   **  Review the Standard Ratings calculations in the Engineering Reference for this coil type. Also, use Output:Diagnostics, DisplayExtraWarnings for further guidance.\n   ** Warning ** Sizing: Coil:Heating:DX:SingleSpeed PTHP 1 SPD DX HTG COIL 28: Rated air volume flow rate per watt of rated total heating capacity is out of range.\n   **   ~~~   ** Min Rated Vol Flow Per Watt=[4.027E-005], Rated Vol Flow Per Watt=[2181995868087813.500], Max Rated Vol Flow Per Watt=[6.041E-005]. See Input-Output Reference Manual for valid range.\n   ** Warning ** Coil:Heating:DX:SingleSpeed \"PTHP 1 SPD DX HTG COIL 28\" - Air volume flow rate per watt of rated total heating capacity is out of range at 2172505924178140. m3/s/W.\n   **   ~~~   **  During Warmup, Environment=MONTREAL INT'L ANN CLG .4% CONDNS DB=>MWB, at Simulation time=07/21 00:00 - 00:10\n   **   ~~~   ** Expected range for VolumeFlowPerRatedTotalCapacity=[2.684E-005--8.056E-005]\n   **   ~~~   ** Possible causes include inconsistent air flow rates in system components or\n   **   ~~~   ** inconsistent supply air fan operation modes in coil and unitary system objects.\n   ** Warning ** The Standard Ratings is calculated for Coil:Heating:DX:SingleSpeed = PTHP 1 SPD DX HTG COIL 8 but not at the AHRI test condition due to curve out of bound.\n   **   ~~~   **  Review the Standard Ratings calculations in the Engineering Reference for this coil type. Also, use Output:Diagnostics, DisplayExtraWarnings for further guidance.\n   ** Warning ** Sizing: Coil:Heating:DX:SingleSpeed PTHP 1 SPD DX HTG COIL 8: Rated air volume flow rate per watt of rated total heating capacity is out of range.\n   **   ~~~   ** Min Rated Vol Flow Per Watt=[4.027E-005], Rated Vol Flow Per Watt=[1918555142941635.750], Max Rated Vol Flow Per Watt=[6.041E-005]. See Input-Output Reference Manual for valid range.\n   ** Warning ** Coil:Heating:DX:SingleSpeed \"PTHP 1 SPD DX HTG COIL 8\" - Air volume flow rate per watt of rated total heating capacity is out of range at 1910210956336880. m3/s/W.\n   **   ~~~   **  During Warmup, Environment=MONTREAL INT'L ANN CLG .4% CONDNS DB=>MWB, at Simulation time=07/21 00:00 - 00:10\n   **   ~~~   ** Expected range for VolumeFlowPerRatedTotalCapacity=[2.684E-005--8.056E-005]\n   **   ~~~   ** Possible causes include inconsistent air flow rates in system components or\n   **   ~~~   ** inconsistent supply air fan operation modes in coil and unitary system objects.\n   ** Warning ** The Standard Ratings is calculated for Coil:Heating:DX:SingleSpeed = PTHP 1 SPD DX HTG COIL 5 but not at the AHRI test condition due to curve out of bound.\n   **   ~~~   **  Review the Standard Ratings calculations in the Engineering Reference for this coil type. Also, use Output:Diagnostics, DisplayExtraWarnings for further guidance.\n   ** Warning ** Sizing: Coil:Heating:DX:SingleSpeed PTHP 1 SPD DX HTG COIL 5: Rated air volume flow rate per watt of rated total heating capacity is out of range.\n   **   ~~~   ** Min Rated Vol Flow Per Watt=[4.027E-005], Rated Vol Flow Per Watt=[1916143625636643.250], Max Rated Vol Flow Per Watt=[6.041E-005]. See Input-Output Reference Manual for valid range.\n   ** Warning ** Coil:Heating:DX:SingleSpeed \"PTHP 1 SPD DX HTG COIL 5\" - Air volume flow rate per watt of rated total heating capacity is out of range at 1907809927211218. m3/s/W.\n   **   ~~~   **  During Warmup, Environment=MONTREAL INT'L ANN CLG .4% CONDNS DB=>MWB, at Simulation time=07/21 00:00 - 00:10\n   **   ~~~   ** Expected range for VolumeFlowPerRatedTotalCapacity=[2.684E-005--8.056E-005]\n   **   ~~~   ** Possible causes include inconsistent air flow rates in system components or\n   **   ~~~   ** inconsistent supply air fan operation modes in coil and unitary system objects.\n   ** Warning ** The Standard Ratings is calculated for Coil:Heating:DX:SingleSpeed = PTHP 1 SPD DX HTG COIL 7 but not at the AHRI test condition due to curve out of bound.\n   **   ~~~   **  Review the Standard Ratings calculations in the Engineering Reference for this coil type. Also, use Output:Diagnostics, DisplayExtraWarnings for further guidance.\n   ** Warning ** Sizing: Coil:Heating:DX:SingleSpeed PTHP 1 SPD DX HTG COIL 7: Rated air volume flow rate per watt of rated total heating capacity is out of range.\n   **   ~~~   ** Min Rated Vol Flow Per Watt=[4.027E-005], Rated Vol Flow Per Watt=[2420550990148432.000], Max Rated Vol Flow Per Watt=[6.041E-005]. See Input-Output Reference Manual for valid range.\n   ** Warning ** Coil:Heating:DX:SingleSpeed \"PTHP 1 SPD DX HTG COIL 7\" - Air volume flow rate per watt of rated total heating capacity is out of range at 2410023521484093. m3/s/W.\n   **   ~~~   **  During Warmup, Environment=MONTREAL INT'L ANN CLG .4% CONDNS DB=>MWB, at Simulation time=07/21 00:00 - 00:10\n   **   ~~~   ** Expected range for VolumeFlowPerRatedTotalCapacity=[2.684E-005--8.056E-005]\n   **   ~~~   ** Possible causes include inconsistent air flow rates in system components or\n   **   ~~~   ** inconsistent supply air fan operation modes in coil and unitary system objects.\n   ** Warning ** The Standard Ratings is calculated for Coil:Heating:DX:SingleSpeed = PTHP 1 SPD DX HTG COIL 9 but not at the AHRI test condition due to curve out of bound.\n   **   ~~~   **  Review the Standard Ratings calculations in the Engineering Reference for this coil type. Also, use Output:Diagnostics, DisplayExtraWarnings for further guidance.\n   ** Warning ** Sizing: Coil:Heating:DX:SingleSpeed PTHP 1 SPD DX HTG COIL 9: Rated air volume flow rate per watt of rated total heating capacity is out of range.\n   **   ~~~   ** Min Rated Vol Flow Per Watt=[4.027E-005], Rated Vol Flow Per Watt=[2473724816953992.500], Max Rated Vol Flow Per Watt=[6.041E-005]. See Input-Output Reference Manual for valid range.\n   ** Warning ** Coil:Heating:DX:SingleSpeed \"PTHP 1 SPD DX HTG COIL 9\" - Air volume flow rate per watt of rated total heating capacity is out of range at 2462966084499824. m3/s/W.\n   **   ~~~   **  During Warmup, Environment=MONTREAL INT'L ANN CLG .4% CONDNS DB=>MWB, at Simulation time=07/21 00:00 - 00:10\n   **   ~~~   ** Expected range for VolumeFlowPerRatedTotalCapacity=[2.684E-005--8.056E-005]\n   **   ~~~   ** Possible causes include inconsistent air flow rates in system components or\n   **   ~~~   ** inconsistent supply air fan operation modes in coil and unitary system objects.\n   ** Warning ** The Standard Ratings is calculated for Coil:Heating:DX:SingleSpeed = PTHP 1 SPD DX HTG COIL 3 but not at the AHRI test condition due to curve out of bound.\n   **   ~~~   **  Review the Standard Ratings calculations in the Engineering Reference for this coil type. Also, use Output:Diagnostics, DisplayExtraWarnings for further guidance.\n   ** Warning ** Sizing: Coil:Heating:DX:SingleSpeed PTHP 1 SPD DX HTG COIL 3: Rated air volume flow rate per watt of rated total heating capacity is out of range.\n   **   ~~~   ** Min Rated Vol Flow Per Watt=[4.027E-005], Rated Vol Flow Per Watt=[1918121032369501.000], Max Rated Vol Flow Per Watt=[6.041E-005]. See Input-Output Reference Manual for valid range.\n   ** Warning ** Coil:Heating:DX:SingleSpeed \"PTHP 1 SPD DX HTG COIL 3\" - Air volume flow rate per watt of rated total heating capacity is out of range at 1909778733799934. m3/s/W.\n   **   ~~~   **  During Warmup, Environment=MONTREAL INT'L ANN CLG .4% CONDNS DB=>MWB, at Simulation time=07/21 00:00 - 00:10\n   **   ~~~   ** Expected range for VolumeFlowPerRatedTotalCapacity=[2.684E-005--8.056E-005]\n   **   ~~~   ** Possible causes include inconsistent air flow rates in system components or\n   **   ~~~   ** inconsistent supply air fan operation modes in coil and unitary system objects.\n   ** Warning ** The Standard Ratings is calculated for Coil:Heating:DX:SingleSpeed = PTHP 1 SPD DX HTG COIL 1 but not at the AHRI test condition due to curve out of bound.\n   **   ~~~   **  Review the Standard Ratings calculations in the Engineering Reference for this coil type. Also, use Output:Diagnostics, DisplayExtraWarnings for further guidance.\n   ** Warning ** Sizing: Coil:Heating:DX:SingleSpeed PTHP 1 SPD DX HTG COIL 1: Rated air volume flow rate per watt of rated total heating capacity is out of range.\n   **   ~~~   ** Min Rated Vol Flow Per Watt=[4.027E-005], Rated Vol Flow Per Watt=[1918452331383886.250], Max Rated Vol Flow Per Watt=[6.041E-005]. See Input-Output Reference Manual for valid range.\n   ** Warning ** Coil:Heating:DX:SingleSpeed \"PTHP 1 SPD DX HTG COIL 1\" - Air volume flow rate per watt of rated total heating capacity is out of range at 1910108591927510. m3/s/W.\n   **   ~~~   **  During Warmup, Environment=MONTREAL INT'L ANN CLG .4% CONDNS DB=>MWB, at Simulation time=07/21 00:00 - 00:10\n   **   ~~~   ** Expected range for VolumeFlowPerRatedTotalCapacity=[2.684E-005--8.056E-005]\n   **   ~~~   ** Possible causes include inconsistent air flow rates in system components or\n   **   ~~~   ** inconsistent supply air fan operation modes in coil and unitary system objects.\n   ** Warning ** The Standard Ratings is calculated for Coil:Heating:DX:SingleSpeed = PTHP 1 SPD DX HTG COIL 4 but not at the AHRI test condition due to curve out of bound.\n   **   ~~~   **  Review the Standard Ratings calculations in the Engineering Reference for this coil type. Also, use Output:Diagnostics, DisplayExtraWarnings for further guidance.\n   ** Warning ** Sizing: Coil:Heating:DX:SingleSpeed PTHP 1 SPD DX HTG COIL 4: Rated air volume flow rate per watt of rated total heating capacity is out of range.\n   **   ~~~   ** Min Rated Vol Flow Per Watt=[4.027E-005], Rated Vol Flow Per Watt=[2436692007574805.000], Max Rated Vol Flow Per Watt=[6.041E-005]. See Input-Output Reference Manual for valid range.\n   ** Warning ** Coil:Heating:DX:SingleSpeed \"PTHP 1 SPD DX HTG COIL 4\" - Air volume flow rate per watt of rated total heating capacity is out of range at 2426094338342142. m3/s/W.\n   **   ~~~   **  During Warmup, Environment=MONTREAL INT'L ANN CLG .4% CONDNS DB=>MWB, at Simulation time=07/21 00:00 - 00:10\n   **   ~~~   ** Expected range for VolumeFlowPerRatedTotalCapacity=[2.684E-005--8.056E-005]\n   **   ~~~   ** Possible causes include inconsistent air flow rates in system components or\n   **   ~~~   ** inconsistent supply air fan operation modes in coil and unitary system objects.\n   ** Warning ** The Standard Ratings is calculated for Coil:Heating:DX:SingleSpeed = PTHP 1 SPD DX HTG COIL 2 but not at the AHRI test condition due to curve out of bound.\n   **   ~~~   **  Review the Standard Ratings calculations in the Engineering Reference for this coil type. Also, use Output:Diagnostics, DisplayExtraWarnings for further guidance.\n   ** Warning ** Sizing: Coil:Heating:DX:SingleSpeed PTHP 1 SPD DX HTG COIL 2: Rated air volume flow rate per watt of rated total heating capacity is out of range.\n   **   ~~~   ** Min Rated Vol Flow Per Watt=[4.027E-005], Rated Vol Flow Per Watt=[1933961563520754.500], Max Rated Vol Flow Per Watt=[6.041E-005]. See Input-Output Reference Manual for valid range.\n   ** Warning ** Coil:Heating:DX:SingleSpeed \"PTHP 1 SPD DX HTG COIL 2\" - Air volume flow rate per watt of rated total heating capacity is out of range at 1925550371258800. m3/s/W.\n   **   ~~~   **  During Warmup, Environment=MONTREAL INT'L ANN CLG .4% CONDNS DB=>MWB, at Simulation time=07/21 00:00 - 00:10\n   **   ~~~   ** Expected range for VolumeFlowPerRatedTotalCapacity=[2.684E-005--8.056E-005]\n   **   ~~~   ** Possible causes include inconsistent air flow rates in system components or\n   **   ~~~   ** inconsistent supply air fan operation modes in coil and unitary system objects.\n   ** Warning ** The Standard Ratings is calculated for Coil:Heating:DX:SingleSpeed = PTHP 1 SPD DX HTG COIL 26 but not at the AHRI test condition due to curve out of bound.\n   **   ~~~   **  Review the Standard Ratings calculations in the Engineering Reference for this coil type. Also, use Output:Diagnostics, DisplayExtraWarnings for further guidance.\n   ** Warning ** Sizing: Coil:Heating:DX:SingleSpeed PTHP 1 SPD DX HTG COIL 26: Rated air volume flow rate per watt of rated total heating capacity is out of range.\n   **   ~~~   ** Min Rated Vol Flow Per Watt=[4.027E-005], Rated Vol Flow Per Watt=[2436180236633432.500], Max Rated Vol Flow Per Watt=[6.041E-005]. See Input-Output Reference Manual for valid range.\n   ** Warning ** Coil:Heating:DX:SingleSpeed \"PTHP 1 SPD DX HTG COIL 26\" - Air volume flow rate per watt of rated total heating capacity is out of range at 2425584793196702. m3/s/W.\n   **   ~~~   **  During Warmup, Environment=MONTREAL INT'L ANN CLG .4% CONDNS DB=>MWB, at Simulation time=07/21 00:00 - 00:10\n   **   ~~~   ** Expected range for VolumeFlowPerRatedTotalCapacity=[2.684E-005--8.056E-005]\n   **   ~~~   ** Possible causes include inconsistent air flow rates in system components or\n   **   ~~~   ** inconsistent supply air fan operation modes in coil and unitary system objects.\n   ** Warning ** The Standard Ratings is calculated for Coil:Heating:DX:SingleSpeed = PTHP 1 SPD DX HTG COIL 22 but not at the AHRI test condition due to curve out of bound.\n   **   ~~~   **  Review the Standard Ratings calculations in the Engineering Reference for this coil type. Also, use Output:Diagnostics, DisplayExtraWarnings for further guidance.\n   ** Warning ** Sizing: Coil:Heating:DX:SingleSpeed PTHP 1 SPD DX HTG COIL 22: Rated air volume flow rate per watt of rated total heating capacity is out of range.\n   **   ~~~   ** Min Rated Vol Flow Per Watt=[4.027E-005], Rated Vol Flow Per Watt=[2382650809596607.000], Max Rated Vol Flow Per Watt=[6.041E-005]. See Input-Output Reference Manual for valid range.\n   ** Warning ** Coil:Heating:DX:SingleSpeed \"PTHP 1 SPD DX HTG COIL 22\" - Air volume flow rate per watt of rated total heating capacity is out of range at 2372288176527451. m3/s/W.\n   **   ~~~   **  During Warmup, Environment=MONTREAL INT'L ANN CLG .4% CONDNS DB=>MWB, at Simulation time=07/21 00:00 - 00:10\n   **   ~~~   ** Expected range for VolumeFlowPerRatedTotalCapacity=[2.684E-005--8.056E-005]\n   **   ~~~   ** Possible causes include inconsistent air flow rates in system components or\n   **   ~~~   ** inconsistent supply air fan operation modes in coil and unitary system objects.\n   ** Warning ** The Standard Ratings is calculated for Coil:Heating:DX:SingleSpeed = PTHP 1 SPD DX HTG COIL 34 but not at the AHRI test condition due to curve out of bound.\n   **   ~~~   **  Review the Standard Ratings calculations in the Engineering Reference for this coil type. Also, use Output:Diagnostics, DisplayExtraWarnings for further guidance.\n   ** Warning ** Sizing: Coil:Heating:DX:SingleSpeed PTHP 1 SPD DX HTG COIL 34: Rated air volume flow rate per watt of rated total heating capacity is out of range.\n   **   ~~~   ** Min Rated Vol Flow Per Watt=[4.027E-005], Rated Vol Flow Per Watt=[4125445262499600.500], Max Rated Vol Flow Per Watt=[6.041E-005]. See Input-Output Reference Manual for valid range.\n   ** Warning ** Coil:Heating:DX:SingleSpeed \"PTHP 1 SPD DX HTG COIL 34\" - Air volume flow rate per watt of rated total heating capacity is out of range at 4107502861821336. m3/s/W.\n   **   ~~~   **  During Warmup, Environment=MONTREAL INT'L ANN CLG .4% CONDNS DB=>MWB, at Simulation time=07/21 00:00 - 00:10\n   **   ~~~   ** Expected range for VolumeFlowPerRatedTotalCapacity=[2.684E-005--8.056E-005]\n   **   ~~~   ** Possible causes include inconsistent air flow rates in system components or\n   **   ~~~   ** inconsistent supply air fan operation modes in coil and unitary system objects.\n   ** Warning ** The Standard Ratings is calculated for Coil:Heating:DX:SingleSpeed = PTHP 1 SPD DX HTG COIL 21 but not at the AHRI test condition due to curve out of bound.\n   **   ~~~   **  Review the Standard Ratings calculations in the Engineering Reference for this coil type. Also, use Output:Diagnostics, DisplayExtraWarnings for further guidance.\n   ** Warning ** Sizing: Coil:Heating:DX:SingleSpeed PTHP 1 SPD DX HTG COIL 21: Rated air volume flow rate per watt of rated total heating capacity is out of range.\n   **   ~~~   ** Min Rated Vol Flow Per Watt=[4.027E-005], Rated Vol Flow Per Watt=[2435249173138788.500], Max Rated Vol Flow Per Watt=[6.041E-005]. See Input-Output Reference Manual for valid range.\n   ** Warning ** Coil:Heating:DX:SingleSpeed \"PTHP 1 SPD DX HTG COIL 21\" - Air volume flow rate per watt of rated total heating capacity is out of range at 2424657779086600. m3/s/W.\n   **   ~~~   **  During Warmup, Environment=MONTREAL INT'L ANN CLG .4% CONDNS DB=>MWB, at Simulation time=07/21 00:00 - 00:10\n   **   ~~~   ** Expected range for VolumeFlowPerRatedTotalCapacity=[2.684E-005--8.056E-005]\n   **   ~~~   ** Possible causes include inconsistent air flow rates in system components or\n   **   ~~~   ** inconsistent supply air fan operation modes in coil and unitary system objects.\n   ** Warning ** The Standard Ratings is calculated for Coil:Heating:DX:SingleSpeed = PTHP 1 SPD DX HTG COIL 24 but not at the AHRI test condition due to curve out of bound.\n   **   ~~~   **  Review the Standard Ratings calculations in the Engineering Reference for this coil type. Also, use Output:Diagnostics, DisplayExtraWarnings for further guidance.\n   ** Warning ** Sizing: Coil:Heating:DX:SingleSpeed PTHP 1 SPD DX HTG COIL 24: Rated air volume flow rate per watt of rated total heating capacity is out of range.\n   **   ~~~   ** Min Rated Vol Flow Per Watt=[4.027E-005], Rated Vol Flow Per Watt=[2382594449944419.000], Max Rated Vol Flow Per Watt=[6.041E-005]. See Input-Output Reference Manual for valid range.\n   ** Warning ** Coil:Heating:DX:SingleSpeed \"PTHP 1 SPD DX HTG COIL 24\" - Air volume flow rate per watt of rated total heating capacity is out of range at 2372232061994856. m3/s/W.\n   **   ~~~   **  During Warmup, Environment=MONTREAL INT'L ANN CLG .4% CONDNS DB=>MWB, at Simulation time=07/21 00:00 - 00:10\n   **   ~~~   ** Expected range for VolumeFlowPerRatedTotalCapacity=[2.684E-005--8.056E-005]\n   **   ~~~   ** Possible causes include inconsistent air flow rates in system components or\n   **   ~~~   ** inconsistent supply air fan operation modes in coil and unitary system objects.\n   ** Warning ** The Standard Ratings is calculated for Coil:Heating:DX:SingleSpeed = PTHP 1 SPD DX HTG COIL 12 but not at the AHRI test condition due to curve out of bound.\n   **   ~~~   **  Review the Standard Ratings calculations in the Engineering Reference for this coil type. Also, use Output:Diagnostics, DisplayExtraWarnings for further guidance.\n   ** Warning ** Sizing: Coil:Heating:DX:SingleSpeed PTHP 1 SPD DX HTG COIL 12: Rated air volume flow rate per watt of rated total heating capacity is out of range.\n   **   ~~~   ** Min Rated Vol Flow Per Watt=[4.027E-005], Rated Vol Flow Per Watt=[2383152104803313.000], Max Rated Vol Flow Per Watt=[6.041E-005]. See Input-Output Reference Manual for valid range.\n   ** Warning ** Coil:Heating:DX:SingleSpeed \"PTHP 1 SPD DX HTG COIL 12\" - Air volume flow rate per watt of rated total heating capacity is out of range at 2372787291499326. m3/s/W.\n   **   ~~~   **  During Warmup, Environment=MONTREAL INT'L ANN CLG .4% CONDNS DB=>MWB, at Simulation time=07/21 00:00 - 00:10\n   **   ~~~   ** Expected range for VolumeFlowPerRatedTotalCapacity=[2.684E-005--8.056E-005]\n   **   ~~~   ** Possible causes include inconsistent air flow rates in system components or\n   **   ~~~   ** inconsistent supply air fan operation modes in coil and unitary system objects.\n   ** Warning ** The Standard Ratings is calculated for Coil:Heating:DX:SingleSpeed = PTHP 1 SPD DX HTG COIL 23 but not at the AHRI test condition due to curve out of bound.\n   **   ~~~   **  Review the Standard Ratings calculations in the Engineering Reference for this coil type. Also, use Output:Diagnostics, DisplayExtraWarnings for further guidance.\n   ** Warning ** Sizing: Coil:Heating:DX:SingleSpeed PTHP 1 SPD DX HTG COIL 23: Rated air volume flow rate per watt of rated total heating capacity is out of range.\n   **   ~~~   ** Min Rated Vol Flow Per Watt=[4.027E-005], Rated Vol Flow Per Watt=[2435654288758106.000], Max Rated Vol Flow Per Watt=[6.041E-005]. See Input-Output Reference Manual for valid range.\n   ** Warning ** Coil:Heating:DX:SingleSpeed \"PTHP 1 SPD DX HTG COIL 23\" - Air volume flow rate per watt of rated total heating capacity is out of range at 2425061132775678. m3/s/W.\n   **   ~~~   **  During Warmup, Environment=MONTREAL INT'L ANN CLG .4% CONDNS DB=>MWB, at Simulation time=07/21 00:00 - 00:10\n   **   ~~~   ** Expected range for VolumeFlowPerRatedTotalCapacity=[2.684E-005--8.056E-005]\n   **   ~~~   ** Possible causes include inconsistent air flow rates in system components or\n   **   ~~~   ** inconsistent supply air fan operation modes in coil and unitary system objects.\n   ** Warning ** The Standard Ratings is calculated for Coil:Heating:DX:SingleSpeed = PTHP 1 SPD DX HTG COIL 14 but not at the AHRI test condition due to curve out of bound.\n   **   ~~~   **  Review the Standard Ratings calculations in the Engineering Reference for this coil type. Also, use Output:Diagnostics, DisplayExtraWarnings for further guidance.\n   ** Warning ** Sizing: Coil:Heating:DX:SingleSpeed PTHP 1 SPD DX HTG COIL 14: Rated air volume flow rate per watt of rated total heating capacity is out of range.\n   **   ~~~   ** Min Rated Vol Flow Per Watt=[4.027E-005], Rated Vol Flow Per Watt=[2381010740305633.500], Max Rated Vol Flow Per Watt=[6.041E-005]. See Input-Output Reference Manual for valid range.\n   ** Warning ** Coil:Heating:DX:SingleSpeed \"PTHP 1 SPD DX HTG COIL 14\" - Air volume flow rate per watt of rated total heating capacity is out of range at 2370655240231460. m3/s/W.\n   **   ~~~   **  During Warmup, Environment=MONTREAL INT'L ANN CLG .4% CONDNS DB=>MWB, at Simulation time=07/21 00:00 - 00:10\n   **   ~~~   ** Expected range for VolumeFlowPerRatedTotalCapacity=[2.684E-005--8.056E-005]\n   **   ~~~   ** Possible causes include inconsistent air flow rates in system components or\n   **   ~~~   ** inconsistent supply air fan operation modes in coil and unitary system objects.\n   ** Warning ** The Standard Ratings is calculated for Coil:Heating:DX:SingleSpeed = PTHP 1 SPD DX HTG COIL 17 but not at the AHRI test condition due to curve out of bound.\n   **   ~~~   **  Review the Standard Ratings calculations in the Engineering Reference for this coil type. Also, use Output:Diagnostics, DisplayExtraWarnings for further guidance.\n   ** Warning ** Sizing: Coil:Heating:DX:SingleSpeed PTHP 1 SPD DX HTG COIL 17: Rated air volume flow rate per watt of rated total heating capacity is out of range.\n   **   ~~~   ** Min Rated Vol Flow Per Watt=[4.027E-005], Rated Vol Flow Per Watt=[2380512367766587.000], Max Rated Vol Flow Per Watt=[6.041E-005]. See Input-Output Reference Manual for valid range.\n   ** Warning ** Coil:Heating:DX:SingleSpeed \"PTHP 1 SPD DX HTG COIL 17\" - Air volume flow rate per watt of rated total heating capacity is out of range at 2370159035215969. m3/s/W.\n   **   ~~~   **  During Warmup, Environment=MONTREAL INT'L ANN CLG .4% CONDNS DB=>MWB, at Simulation time=07/21 00:00 - 00:10\n   **   ~~~   ** Expected range for VolumeFlowPerRatedTotalCapacity=[2.684E-005--8.056E-005]\n   **   ~~~   ** Possible causes include inconsistent air flow rates in system components or\n   **   ~~~   ** inconsistent supply air fan operation modes in coil and unitary system objects.\n   ** Warning ** The Standard Ratings is calculated for Coil:Heating:DX:SingleSpeed = PTHP 1 SPD DX HTG COIL 20 but not at the AHRI test condition due to curve out of bound.\n   **   ~~~   **  Review the Standard Ratings calculations in the Engineering Reference for this coil type. Also, use Output:Diagnostics, DisplayExtraWarnings for further guidance.\n   ** Warning ** Sizing: Coil:Heating:DX:SingleSpeed PTHP 1 SPD DX HTG COIL 20: Rated air volume flow rate per watt of rated total heating capacity is out of range.\n   **   ~~~   ** Min Rated Vol Flow Per Watt=[4.027E-005], Rated Vol Flow Per Watt=[2383066896516335.000], Max Rated Vol Flow Per Watt=[6.041E-005]. See Input-Output Reference Manual for valid range.\n   ** Warning ** Coil:Heating:DX:SingleSpeed \"PTHP 1 SPD DX HTG COIL 20\" - Air volume flow rate per watt of rated total heating capacity is out of range at 2372702453800522. m3/s/W.\n   **   ~~~   **  During Warmup, Environment=MONTREAL INT'L ANN CLG .4% CONDNS DB=>MWB, at Simulation time=07/21 00:00 - 00:10\n   **   ~~~   ** Expected range for VolumeFlowPerRatedTotalCapacity=[2.684E-005--8.056E-005]\n   **   ~~~   ** Possible causes include inconsistent air flow rates in system components or\n   **   ~~~   ** inconsistent supply air fan operation modes in coil and unitary system objects.\n   ** Warning ** The Standard Ratings is calculated for Coil:Heating:DX:SingleSpeed = PTHP 1 SPD DX HTG COIL 25 but not at the AHRI test condition due to curve out of bound.\n   **   ~~~   **  Review the Standard Ratings calculations in the Engineering Reference for this coil type. Also, use Output:Diagnostics, DisplayExtraWarnings for further guidance.\n   ** Warning ** Sizing: Coil:Heating:DX:SingleSpeed PTHP 1 SPD DX HTG COIL 25: Rated air volume flow rate per watt of rated total heating capacity is out of range.\n   **   ~~~   ** Min Rated Vol Flow Per Watt=[4.027E-005], Rated Vol Flow Per Watt=[5568547800398970.000], Max Rated Vol Flow Per Watt=[6.041E-005]. See Input-Output Reference Manual for valid range.\n   ** Warning ** Coil:Heating:DX:SingleSpeed \"PTHP 1 SPD DX HTG COIL 25\" - Air volume flow rate per watt of rated total heating capacity is out of range at 5544329053215719. m3/s/W.\n   **   ~~~   **  During Warmup, Environment=MONTREAL INT'L ANN CLG .4% CONDNS DB=>MWB, at Simulation time=07/21 00:00 - 00:10\n   **   ~~~   ** Expected range for VolumeFlowPerRatedTotalCapacity=[2.684E-005--8.056E-005]\n   **   ~~~   ** Possible causes include inconsistent air flow rates in system components or\n   **   ~~~   ** inconsistent supply air fan operation modes in coil and unitary system objects.\n   ** Warning ** The Standard Ratings is calculated for Coil:Heating:DX:SingleSpeed = PTHP 1 SPD DX HTG COIL 15 but not at the AHRI test condition due to curve out of bound.\n   **   ~~~   **  Review the Standard Ratings calculations in the Engineering Reference for this coil type. Also, use Output:Diagnostics, DisplayExtraWarnings for further guidance.\n   ** Warning ** Sizing: Coil:Heating:DX:SingleSpeed PTHP 1 SPD DX HTG COIL 15: Rated air volume flow rate per watt of rated total heating capacity is out of range.\n   **   ~~~   ** Min Rated Vol Flow Per Watt=[4.027E-005], Rated Vol Flow Per Watt=[2418586940422425.500], Max Rated Vol Flow Per Watt=[6.041E-005]. See Input-Output Reference Manual for valid range.\n   ** Warning ** Coil:Heating:DX:SingleSpeed \"PTHP 1 SPD DX HTG COIL 15\" - Air volume flow rate per watt of rated total heating capacity is out of range at 2408068013809888. m3/s/W.\n   **   ~~~   **  During Warmup, Environment=MONTREAL INT'L ANN CLG .4% CONDNS DB=>MWB, at Simulation time=07/21 00:00 - 00:10\n   **   ~~~   ** Expected range for VolumeFlowPerRatedTotalCapacity=[2.684E-005--8.056E-005]\n   **   ~~~   ** Possible causes include inconsistent air flow rates in system components or\n   **   ~~~   ** inconsistent supply air fan operation modes in coil and unitary system objects.\n   ** Warning ** The Standard Ratings is calculated for Coil:Heating:DX:SingleSpeed = PTHP 1 SPD DX HTG COIL 18 but not at the AHRI test condition due to curve out of bound.\n   **   ~~~   **  Review the Standard Ratings calculations in the Engineering Reference for this coil type. Also, use Output:Diagnostics, DisplayExtraWarnings for further guidance.\n   ** Warning ** Sizing: Coil:Heating:DX:SingleSpeed PTHP 1 SPD DX HTG COIL 18: Rated air volume flow rate per watt of rated total heating capacity is out of range.\n   **   ~~~   ** Min Rated Vol Flow Per Watt=[4.027E-005], Rated Vol Flow Per Watt=[2474232046831680.500], Max Rated Vol Flow Per Watt=[6.041E-005]. See Input-Output Reference Manual for valid range.\n   ** Warning ** Coil:Heating:DX:SingleSpeed \"PTHP 1 SPD DX HTG COIL 18\" - Air volume flow rate per watt of rated total heating capacity is out of range at 2463471108331588. m3/s/W.\n   **   ~~~   **  During Warmup, Environment=MONTREAL INT'L ANN CLG .4% CONDNS DB=>MWB, at Simulation time=07/21 00:00 - 00:10\n   **   ~~~   ** Expected range for VolumeFlowPerRatedTotalCapacity=[2.684E-005--8.056E-005]\n   **   ~~~   ** Possible causes include inconsistent air flow rates in system components or\n   **   ~~~   ** inconsistent supply air fan operation modes in coil and unitary system objects.\n   ** Warning ** The Standard Ratings is calculated for Coil:Heating:DX:SingleSpeed = PTHP 1 SPD DX HTG COIL 27 but not at the AHRI test condition due to curve out of bound.\n   **   ~~~   **  Review the Standard Ratings calculations in the Engineering Reference for this coil type. Also, use Output:Diagnostics, DisplayExtraWarnings for further guidance.\n   ** Warning ** Sizing: Coil:Heating:DX:SingleSpeed PTHP 1 SPD DX HTG COIL 27: Rated air volume flow rate per watt of rated total heating capacity is out of range.\n   **   ~~~   ** Min Rated Vol Flow Per Watt=[4.027E-005], Rated Vol Flow Per Watt=[2182266501564443.250], Max Rated Vol Flow Per Watt=[6.041E-005]. See Input-Output Reference Manual for valid range.\n   ** Warning ** Coil:Heating:DX:SingleSpeed \"PTHP 1 SPD DX HTG COIL 27\" - Air volume flow rate per watt of rated total heating capacity is out of range at 2172775380614726. m3/s/W.\n   **   ~~~   **  During Warmup, Environment=MONTREAL INT'L ANN CLG .4% CONDNS DB=>MWB, at Simulation time=07/21 00:00 - 00:10\n   **   ~~~   ** Expected range for VolumeFlowPerRatedTotalCapacity=[2.684E-005--8.056E-005]\n   **   ~~~   ** Possible causes include inconsistent air flow rates in system components or\n   **   ~~~   ** inconsistent supply air fan operation modes in coil and unitary system objects.\n   ** Warning ** The Standard Ratings is calculated for Coil:Heating:DX:SingleSpeed = PTHP 1 SPD DX HTG COIL 13 but not at the AHRI test condition due to curve out of bound.\n   **   ~~~   **  Review the Standard Ratings calculations in the Engineering Reference for this coil type. Also, use Output:Diagnostics, DisplayExtraWarnings for further guidance.\n   ** Warning ** Sizing: Coil:Heating:DX:SingleSpeed PTHP 1 SPD DX HTG COIL 13: Rated air volume flow rate per watt of rated total heating capacity is out of range.\n   **   ~~~   ** Min Rated Vol Flow Per Watt=[4.027E-005], Rated Vol Flow Per Watt=[2419988593228893.500], Max Rated Vol Flow Per Watt=[6.041E-005]. See Input-Output Reference Manual for valid range.\n   ** Warning ** Coil:Heating:DX:SingleSpeed \"PTHP 1 SPD DX HTG COIL 13\" - Air volume flow rate per watt of rated total heating capacity is out of range at 2409463570543165. m3/s/W.\n   **   ~~~   **  During Warmup, Environment=MONTREAL INT'L ANN CLG .4% CONDNS DB=>MWB, at Simulation time=07/21 00:00 - 00:10\n   **   ~~~   ** Expected range for VolumeFlowPerRatedTotalCapacity=[2.684E-005--8.056E-005]\n   **   ~~~   ** Possible causes include inconsistent air flow rates in system components or\n   **   ~~~   ** inconsistent supply air fan operation modes in coil and unitary system objects.\n   ** Warning ** The Standard Ratings is calculated for Coil:Heating:DX:SingleSpeed = PTHP 1 SPD DX HTG COIL 16 but not at the AHRI test condition due to curve out of bound.\n   **   ~~~   **  Review the Standard Ratings calculations in the Engineering Reference for this coil type. Also, use Output:Diagnostics, DisplayExtraWarnings for further guidance.\n   ** Warning ** Sizing: Coil:Heating:DX:SingleSpeed PTHP 1 SPD DX HTG COIL 16: Rated air volume flow rate per watt of rated total heating capacity is out of range.\n   **   ~~~   ** Min Rated Vol Flow Per Watt=[4.027E-005], Rated Vol Flow Per Watt=[2420099429567744.500], Max Rated Vol Flow Per Watt=[6.041E-005]. See Input-Output Reference Manual for valid range.\n   ** Warning ** Coil:Heating:DX:SingleSpeed \"PTHP 1 SPD DX HTG COIL 16\" - Air volume flow rate per watt of rated total heating capacity is out of range at 2409573924832231. m3/s/W.\n   **   ~~~   **  During Warmup, Environment=MONTREAL INT'L ANN CLG .4% CONDNS DB=>MWB, at Simulation time=07/21 00:00 - 00:10\n   **   ~~~   ** Expected range for VolumeFlowPerRatedTotalCapacity=[2.684E-005--8.056E-005]\n   **   ~~~   ** Possible causes include inconsistent air flow rates in system components or\n   **   ~~~   ** inconsistent supply air fan operation modes in coil and unitary system objects.\n   ** Warning ** The Standard Ratings is calculated for Coil:Heating:DX:SingleSpeed = PTHP 1 SPD DX HTG COIL 19 but not at the AHRI test condition due to curve out of bound.\n   **   ~~~   **  Review the Standard Ratings calculations in the Engineering Reference for this coil type. Also, use Output:Diagnostics, DisplayExtraWarnings for further guidance.\n   ** Warning ** Sizing: Coil:Heating:DX:SingleSpeed PTHP 1 SPD DX HTG COIL 19: Rated air volume flow rate per watt of rated total heating capacity is out of range.\n   **   ~~~   ** Min Rated Vol Flow Per Watt=[4.027E-005], Rated Vol Flow Per Watt=[2473290199917500.500], Max Rated Vol Flow Per Watt=[6.041E-005]. See Input-Output Reference Manual for valid range.\n   ** Warning ** Coil:Heating:DX:SingleSpeed \"PTHP 1 SPD DX HTG COIL 19\" - Air volume flow rate per watt of rated total heating capacity is out of range at 2462533357701236. m3/s/W.\n   **   ~~~   **  During Warmup, Environment=MONTREAL INT'L ANN CLG .4% CONDNS DB=>MWB, at Simulation time=07/21 00:00 - 00:10\n   **   ~~~   ** Expected range for VolumeFlowPerRatedTotalCapacity=[2.684E-005--8.056E-005]\n   **   ~~~   ** Possible causes include inconsistent air flow rates in system components or\n   **   ~~~   ** inconsistent supply air fan operation modes in coil and unitary system objects.\n   ** Warning ** The Standard Ratings is calculated for Coil:Heating:DX:SingleSpeed = PTHP 1 SPD DX HTG COIL 10 but not at the AHRI test condition due to curve out of bound.\n   **   ~~~   **  Review the Standard Ratings calculations in the Engineering Reference for this coil type. Also, use Output:Diagnostics, DisplayExtraWarnings for further guidance.\n   ** Warning ** Sizing: Coil:Heating:DX:SingleSpeed PTHP 1 SPD DX HTG COIL 10: Rated air volume flow rate per watt of rated total heating capacity is out of range.\n   **   ~~~   ** Min Rated Vol Flow Per Watt=[4.027E-005], Rated Vol Flow Per Watt=[2418024687186579.000], Max Rated Vol Flow Per Watt=[6.041E-005]. See Input-Output Reference Manual for valid range.\n   ** Warning ** Coil:Heating:DX:SingleSpeed \"PTHP 1 SPD DX HTG COIL 10\" - Air volume flow rate per watt of rated total heating capacity is out of range at 2407508205927742. m3/s/W.\n   **   ~~~   **  During Warmup, Environment=MONTREAL INT'L ANN CLG .4% CONDNS DB=>MWB, at Simulation time=07/21 00:00 - 00:10\n   **   ~~~   ** Expected range for VolumeFlowPerRatedTotalCapacity=[2.684E-005--8.056E-005]\n   **   ~~~   ** Possible causes include inconsistent air flow rates in system components or\n   **   ~~~   ** inconsistent supply air fan operation modes in coil and unitary system objects.\n   ** Warning ** The Standard Ratings is calculated for Coil:Heating:DX:SingleSpeed = PTHP 1 SPD DX HTG COIL 11 but not at the AHRI test condition due to curve out of bound.\n   **   ~~~   **  Review the Standard Ratings calculations in the Engineering Reference for this coil type. Also, use Output:Diagnostics, DisplayExtraWarnings for further guidance.\n   ** Warning ** Sizing: Coil:Heating:DX:SingleSpeed PTHP 1 SPD DX HTG COIL 11: Rated air volume flow rate per watt of rated total heating capacity is out of range.\n   **   ~~~   ** Min Rated Vol Flow Per Watt=[4.027E-005], Rated Vol Flow Per Watt=[2474774161751417.000], Max Rated Vol Flow Per Watt=[6.041E-005]. See Input-Output Reference Manual for valid range.\n   ** Warning ** Coil:Heating:DX:SingleSpeed \"PTHP 1 SPD DX HTG COIL 11\" - Air volume flow rate per watt of rated total heating capacity is out of range at 2464010865483258. m3/s/W.\n   **   ~~~   **  During Warmup, Environment=MONTREAL INT'L ANN CLG .4% CONDNS DB=>MWB, at Simulation time=07/21 00:00 - 00:10\n   **   ~~~   ** Expected range for VolumeFlowPerRatedTotalCapacity=[2.684E-005--8.056E-005]\n   **   ~~~   ** Possible causes include inconsistent air flow rates in system components or\n   **   ~~~   ** inconsistent supply air fan operation modes in coil and unitary system objects.\n   ** Warning ** The Standard Ratings is calculated for Coil:Heating:DX:SingleSpeed = PTHP 1 SPD DX HTG COIL 30 but not at the AHRI test condition due to curve out of bound.\n   **   ~~~   **  Review the Standard Ratings calculations in the Engineering Reference for this coil type. Also, use Output:Diagnostics, DisplayExtraWarnings for further guidance.\n   ** Warning ** Sizing: Coil:Heating:DX:SingleSpeed PTHP 1 SPD DX HTG COIL 30: Rated air volume flow rate per watt of rated total heating capacity is out of range.\n   **   ~~~   ** Min Rated Vol Flow Per Watt=[4.027E-005], Rated Vol Flow Per Watt=[2150527560726395.750], Max Rated Vol Flow Per Watt=[6.041E-005]. See Input-Output Reference Manual for valid range.\n   ** Warning ** Coil:
[...]
                  "name" : "surface_239_c_tbd",
                  "units" : "m^2",
                  "value" : 17.068800000000039
               },
               {
                  "name" : "surface_24_c_tbd",
                  "units" : "m^2",
                  "value" : 17.068800000000039
               },
               {
                  "name" : "surface_240_c_tbd",
                  "units" : "m^2",
                  "value" : 15.544799999999974
               },
               {
                  "name" : "surface_241_c_tbd",
                  "units" : "m^2",
                  "value" : 3.6575999999999906
               },
               {
                  "name" : "surface_242_c_tbd",
                  "units" : "m^2",
                  "value" : 17.068800000000039
               },
               {
                  "name" : "surface_243_c_tbd",
                  "units" : "m^2",
                  "value" : 22.402799999999985
               },
               {
                  "name" : "surface_244_c_tbd",
                  "units" : "m^2",
                  "value" : 84.0
               },
               {
                  "name" : "surface_246_c_tbd",
                  "units" : "m^2",
                  "value" : 17.068800000000039
               },
               {
                  "name" : "surface_247_c_tbd",
                  "units" : "m^2",
                  "value" : 22.402799999999989
               },
               {
                  "name" : "surface_248_c_tbd",
                  "units" : "m^2",
                  "value" : 17.068800000000039
               },
               {
                  "name" : "surface_249_c_tbd",
                  "units" : "m^2",
                  "value" : 19.202399999999948
               },
               {
                  "name" : "surface_25_c_tbd",
                  "units" : "m^2",
                  "value" : 17.373599999999975
               },
               {
                  "name" : "surface_250_c_tbd",
                  "units" : "m^2",
                  "value" : 84.0
               },
               {
                  "name" : "surface_252_c_tbd",
                  "units" : "m^2",
                  "value" : 17.068800000000039
               },
               {
                  "name" : "surface_253_c_tbd",
                  "units" : "m^2",
                  "value" : 22.402799999999992
               },
               {
                  "name" : "surface_254_c_tbd",
                  "units" : "m^2",
                  "value" : 17.068800000000039
               },
               {
                  "name" : "surface_255_c_tbd",
                  "units" : "m^2",
                  "value" : 19.202399999999948
               },
               {
                  "name" : "surface_256_c_tbd",
                  "units" : "m^2",
                  "value" : 84.0
               },
               {
                  "name" : "surface_258_c_tbd",
                  "units" : "m^2",
                  "value" : 17.068800000000039
               },
               {
                  "name" : "surface_259_c_tbd",
                  "units" : "m^2",
                  "value" : 22.402799999999989
               },
               {
                  "name" : "surface_26_c_tbd",
                  "units" : "m^2",
                  "value" : 1.8287999999999938
               },
               {
                  "name" : "surface_260_c_tbd",
                  "units" : "m^2",
                  "value" : 17.068800000000039
               },
               {
                  "name" : "surface_261_c_tbd",
                  "units" : "m^2",
                  "value" : 19.202399999999948
               },
               {
                  "name" : "surface_262_c_tbd",
                  "units" : "m^2",
                  "value" : 84.0
               },
               {
                  "name" : "surface_264_c_tbd",
                  "units" : "m^2",
                  "value" : 1.8287999999999933
               },
               {
                  "name" : "surface_265_c_tbd",
                  "units" : "m^2",
                  "value" : 1.8287999999999982
               },
               {
                  "name" : "surface_266_c_tbd",
                  "units" : "m^2",
                  "value" : 17.068800000000039
               },
               {
                  "name" : "surface_267_c_tbd",
                  "units" : "m^2",
                  "value" : 17.068800000000035
               },
               {
                  "name" : "surface_268_c_tbd",
                  "units" : "m^2",
                  "value" : 17.068800000000039
               },
               {
                  "name" : "surface_269_c_tbd",
                  "units" : "m^2",
                  "value" : 17.068800000000039
               },
               {
                  "name" : "surface_270_c_tbd",
                  "units" : "m^2",
                  "value" : 17.068800000000032
               },
               {
                  "name" : "surface_271_c_tbd",
                  "units" : "m^2",
                  "value" : 4.2671999999999972
               },
               {
                  "name" : "surface_272_c_tbd",
                  "units" : "m^2",
                  "value" : 17.068800000000032
               },
               {
                  "name" : "surface_273_c_tbd",
                  "units" : "m^2",
                  "value" : 17.068800000000039
               },
               {
                  "name" : "surface_274_c_tbd",
                  "units" : "m^2",
                  "value" : 17.068800000000039
               },
               {
                  "name" : "surface_275_c_tbd",
                  "units" : "m^2",
                  "value" : 17.068800000000035
               },
               {
                  "name" : "surface_276_c_tbd",
                  "units" : "m^2",
                  "value" : 17.068800000000039
               },
               {
                  "name" : "surface_277_c_tbd",
                  "units" : "m^2",
                  "value" : 80.000000000000028
               },
               {
                  "name" : "surface_279_c_tbd",
                  "units" : "m^2",
                  "value" : 17.068800000000039
               },
               {
                  "name" : "surface_28_c_tbd",
                  "units" : "m^2",
                  "value" : 22.402799999999985
               },
               {
                  "name" : "surface_280_c_tbd",
                  "units" : "m^2",
                  "value" : 19.202399999999951
               },
               {
                  "name" : "surface_281_c_tbd",
                  "units" : "m^2",
                  "value" : 17.068800000000039
               },
               {
                  "name" : "surface_282_c_tbd",
                  "units" : "m^2",
                  "value" : 22.402799999999985
               },
               {
                  "name" : "surface_283_c_tbd",
                  "units" : "m^2",
                  "value" : 84.0
               },
               {
                  "name" : "surface_285_c_tbd",
                  "units" : "m^2",
                  "value" : 17.068800000000039
               },
               {
                  "name" : "surface_286_c_tbd",
                  "units" : "m^2",
                  "value" : 19.202399999999951
               },
               {
                  "name" : "surface_287_c_tbd",
                  "units" : "m^2",
                  "value" : 17.068800000000039
               },
               {
                  "name" : "surface_288_c_tbd",
                  "units" : "m^2",
                  "value" : 22.402799999999985
               },
               {
                  "name" : "surface_289_c_tbd",
                  "units" : "m^2",
                  "value" : 84.0
               },
               {
                  "name" : "surface_291_c_tbd",
                  "units" : "m^2",
                  "value" : 17.068800000000039
               },
               {
                  "name" : "surface_292_c_tbd",
                  "units" : "m^2",
                  "value" : 22.402799999999989
               },
               {
                  "name" : "surface_293_c_tbd",
                  "units" : "m^2",
                  "value" : 17.068800000000039
               },
               {
                  "name" : "surface_294_c_tbd",
                  "units" : "m^2",
                  "value" : 19.202399999999948
               },
               {
                  "name" : "surface_295_c_tbd",
                  "units" : "m^2",
                  "value" : 84.0
               },
               {
                  "name" : "surface_297_c_tbd",
                  "units" : "m^2",
                  "value" : 17.068800000000039
               },
               {
                  "name" : "surface_298_c_tbd",
                  "units" : "m^2",
                  "value" : 22.402799999999989
               },
               {
                  "name" : "surface_299_c_tbd",
                  "units" : "m^2",
                  "value" : 17.068800000000039
               },
               {
                  "name" : "surface_3_c_tbd",
                  "units" : "m^2",
                  "value" : 15.544799999999974
               },
               {
                  "name" : "surface_300_c_tbd",
                  "units" : "m^2",
                  "value" : 19.202399999999948
               },
               {
                  "name" : "surface_301_c_tbd",
                  "units" : "m^2",
                  "value" : 84.0
               },
               {
                  "name" : "surface_303_c_tbd",
                  "units" : "m^2",
                  "value" : 17.068800000000039
               },
               {
                  "name" : "surface_304_c_tbd",
                  "units" : "m^2",
                  "value" : 17.373599999999975
               },
               {
                  "name" : "surface_305_c_tbd",
                  "units" : "m^2",
                  "value" : 1.8287999999999938
               },
               {
                  "name" : "surface_306_c_tbd",
                  "units" : "m^2",
                  "value" : 17.068800000000042
               },
               {
                  "name" : "surface_307_c_tbd",
                  "units" : "m^2",
                  "value" : 22.402799999999985
               },
               {
                  "name" : "surface_308_c_tbd",
                  "units" : "m^2",
                  "value" : 84.0
               },
               {
                  "name" : "surface_31_c_tbd",
                  "units" : "m^2",
                  "value" : 17.068800000000039
               },
               {
                  "name" : "surface_32_c_tbd",
                  "units" : "m^2",
                  "value" : 22.402799999999989
               },
               {
                  "name" : "surface_34_c_tbd",
                  "units" : "m^2",
                  "value" : 19.202399999999948
               },
               {
                  "name" : "surface_37_c_tbd",
                  "units" : "m^2",
                  "value" : 17.068800000000039
               },
               {
                  "name" : "surface_38_c_tbd",
                  "units" : "m^2",
                  "value" : 19.202399999999951
               },
               {
                  "name" : "surface_4_c_tbd",
                  "units" : "m^2",
                  "value" : 3.6575999999999906
               },
               {
                  "name" : "surface_40_c_tbd",
                  "units" : "m^2",
                  "value" : 22.402799999999985
               },
               {
                  "name" : "surface_43_c_tbd",
                  "units" : "m^2",
                  "value" : 17.068800000000039
               },
               {
                  "name" : "surface_44_c_tbd",
                  "units" : "m^2",
                  "value" : 22.402799999999989
               },
               {
                  "name" : "surface_46_c_tbd",
                  "units" : "m^2",
                  "value" : 19.202399999999948
               },
               {
                  "name" : "surface_49_c_tbd",
                  "units" : "m^2",
                  "value" : 17.068800000000039
               },
               {
                  "name" : "surface_5_c_tbd",
                  "units" : "m^2",
                  "value" : 17.068800000000039
               },
               {
                  "name" : "surface_50_c_tbd",
                  "units" : "m^2",
                  "value" : 19.202399999999951
               },
               {
                  "name" : "surface_52_c_tbd",
                  "units" : "m^2",
                  "value" : 22.402799999999985
               },
               {
                  "name" : "surface_55_c_tbd",
                  "units" : "m^2",
                  "value" : 17.068800000000039
               },
               {
                  "name" : "surface_56_c_tbd",
                  "units" : "m^2",
                  "value" : 22.402799999999989
               },
               {
                  "name" : "surface_58_c_tbd",
                  "units" : "m^2",
                  "value" : 19.202399999999948
               },
               {
                  "name" : "surface_6_c_tbd",
                  "units" : "m^2",
                  "value" : 22.402799999999985
               },
               {
                  "name" : "surface_61_c_tbd",
                  "units" : "m^2",
                  "value" : 17.068800000000039
               },
               {
                  "name" : "surface_62_c_tbd",
                  "units" : "m^2",
                  "value" : 19.202399999999951
               },
               {
                  "name" : "surface_64_c_tbd",
                  "units" : "m^2",
                  "value" : 22.402799999999985
               },
               {
                  "name" : "surface_67_c_tbd",
                  "units" : "m^2",
                  "value" : 17.068800000000039
               },
               {
                  "name" : "surface_68_c_tbd",
                  "units" : "m^2",
                  "value" : 22.402799999999989
               },
               {
                  "name" : "surface_70_c_tbd",
                  "units" : "m^2",
                  "value" : 19.202399999999948
               },
               {
                  "name" : "surface_74_c_tbd",
                  "units" : "m^2",
                  "value" : 22.402799999999992
               },
               {
                  "name" : "surface_75_c_tbd",
                  "units" : "m^2",
                  "value" : 17.068800000000039
               },
               {
                  "name" : "surface_76_c_tbd",
                  "units" : "m^2",
                  "value" : 19.202399999999948
               },
               {
                  "name" : "surface_80_c_tbd",
                  "units" : "m^2",
                  "value" : 15.544799999999974
               },
               {
                  "name" : "surface_81_c_tbd",
                  "units" : "m^2",
                  "value" : 3.6575999999999906
               },
               {
                  "name" : "surface_82_c_tbd",
                  "units" : "m^2",
                  "value" : 17.068800000000039
               },
               {
                  "name" : "surface_83_c_tbd",
                  "units" : "m^2",
                  "value" : 22.402799999999985
               },
               {
                  "name" : "surface_86_c_tbd",
                  "units" : "m^2",
                  "value" : 1.8287999999999933
               },
               {
                  "name" : "surface_87_c_tbd",
                  "units" : "m^2",
                  "value" : 1.8287999999999982
               },
               {
                  "name" : "surface_9_c_tbd",
                  "units" : "m^2",
                  "value" : 1.8287999999999933
               },
               {
                  "name" : "surface_93_c_tbd",
                  "units" : "m^2",
                  "value" : 4.2671999999999972
               },
               {
                  "name" : "typical_iead_roof_19802010_6_a",
                  "units" : "m^2",
                  "value" : 920.0
               },
               {
                  "name" : "typical_insulated_exterior_mass_wall_r_7_gbc",
                  "units" : "m^2",
                  "value" : 682.75200000000086
               },
               {
                  "name" : "customized_fenestration_u_3_08",
                  "units" : "m^2",
                  "value" : 1791.0048000000002
               },
               {
                  "name" : "gross_window_wall_ratio",
                  "units" : "%",
                  "value" : 32.359999999999999
               },
               {
                  "name" : "gross_window_wall_ratio_conditioned",
                  "units" : "%",
                  "value" : 32.359999999999999
               },
               {
                  "name" : "skylight_roof_ratio",
                  "units" : "%",
                  "value" : 0.0
               },
               {
                  "name" : "space_type_murb_lobby",
                  "units" : "m^2",
                  "value" : 320.00000000000011
               },
               {
                  "name" : "space_type_murb_small_1",
                  "units" : "m^2",
                  "value" : 3360.0
               },
               {
                  "name" : "estar_mfhr_whole_building_water_use_equipment",
                  "units" : "m^3/h",
                  "value" : 0.0035999999999999999
               },
               {
                  "name" : "zone_max_hours_over_70_rh",
                  "units" : "hr",
                  "value" : 324.0
               },
               {
                  "name" : "zone_max_hours_over_55_rh",
                  "units" : "hr",
                  "value" : 1240.0
               },
               {
                  "name" : "num_zones_x_hours_over_70",
                  "units" : "zones",
                  "value" : 44
               },
               {
                  "name" : "num_zones_x_hours_over_55",
                  "units" : "zones",
                  "value" : 44
               },
               {
                  "name" : "inflation_approach",
                  "value" : "Constant Dollar"
               },
               {
                  "name" : "analysis_length",
                  "units" : "yrs",
                  "value" : 25
               },
               {
                  "name" : "number_of_measures_with_warnings",
                  "value" : 1
               },
               {
                  "name" : "number_warnings",
                  "value" : 3
               },
               {
                  "name" : "annual_peak_electric_demand",
                  "units" : "kW",
                  "value" : 494.51391999999998
               },
               {
                  "name" : "first_year_capital_cost",
                  "units" : "$",
                  "value" : 0.0
               },
               {
                  "name" : "annual_utility_cost",
                  "units" : "$",
                  "value" : 0.0
               },
               {
                  "name" : "total_lifecycle_cost",
                  "units" : "$",
                  "value" : 0.0
               }
            ],
            "step_warnings" : []
         }
      }
   ],
   "updated_at" : "20240717T111632Z",
   "weather_file" : "CAN_PQ_Montreal.Intl.AP.716270_CWEC.epw"
}