{
   "completed_at" : "20240717T104725Z",
   "completed_status" : "Success",
   "created_at" : "20240717T000830Z",
   "current_step" : 6,
   "eplusout_err" : "Program Version,EnergyPlus, Version 23.2.0-7636e6b3e9, YMD=2024.07.17 06:45,\n   ************* Beginning Zone Sizing Calculations\n   ** Warning ** ProcessScheduleInput: Schedule:Day:Interval=\"FRACTION LATENT DEFAULTDAY - 0.05\", Blank Schedule Type Limits Name input -- will not be validated.\n   ** Warning ** ProcessScheduleInput: Schedule:Day:Interval=\"FRACTION SENSIBLE DEFAULTDAY - 0.2\", Blank Schedule Type Limits Name input -- will not be validated.\n   ** Warning ** ProcessScheduleInput: Schedule:Day:Interval=\"SCHEDULE DAY 47\", Blank Schedule Type Limits Name input -- will not be validated.\n   ** Warning ** ProcessScheduleInput: Schedule:Day:Interval=\"SCHEDULE DAY 48\", Blank Schedule Type Limits Name input -- will not be validated.\n   ** Warning ** ProcessScheduleInput: Schedule:Year=\"0.05 HOT WATER LATENT FRACTION\", Blank Schedule Type Limits Name input -- will not be validated.\n   ** Warning ** ProcessScheduleInput: Schedule:Year=\"0.2 HOT WATER SENSIBLE FRACTION\", Blank Schedule Type Limits Name input -- will not be validated.\n   ** Warning ** ProcessScheduleInput: Schedule:Year=\"FRACTION SENSIBLE - 0.05\", Blank Schedule Type Limits Name input -- will not be validated.\n   ** Warning ** ProcessScheduleInput: Schedule:Year=\"FRACTION SENSIBLE - 0.2\", Blank Schedule Type Limits Name input -- will not be validated.\n   ** Warning ** ProcessScheduleInput: Schedule:Compact=\"DEFAULT 0.5 OPEN FRACTIONAL SCHEDULE\", Blank Schedule Type Limits Name input -- will not be validated.\n   ** Warning ** ProcessScheduleInput: Schedule:Constant=\"ALWAYS OFF DISCRETE\", Blank Schedule Type Limits Name input -- will not be validated.\n   ** Warning ** ProcessScheduleInput: Schedule:Constant=\"ALWAYS ON CONTINUOUS\", Blank Schedule Type Limits Name input -- will not be validated.\n   ** Warning ** GetHTSurfaceData: Surfaces with interface to Ground found but no \"Ground Temperatures\" were input.\n   **   ~~~   ** Found first in surface=SURFACE 154\n   **   ~~~   ** Defaults, constant throughout the year of (18.0) will be used.\n   ** Warning ** CheckUsedConstructions: There are 11 nominally unused constructions in input.\n   **   ~~~   ** For explicit details on each unused construction, use Output:Diagnostics,DisplayExtraWarnings;\n   ** Warning ** GetDXCoils: Coil:Heating:DX:SingleSpeed=\"PTHP 1 SPD DX HTG COIL\" curve values\n   **   ~~~   ** ... Heating Capacity Function of Temperature Curve Name = OS:CURVE:BIQUADRATIC 11 output is not equal to 1.0 (+ or - 10%) at rated conditions.\n   **   ~~~   ** ... Curve output at rated conditions = 0.786\n   ** Warning ** GetDXCoils: Coil:Heating:DX:SingleSpeed=\"PTHP 1 SPD DX HTG COIL 6\" curve values\n   **   ~~~   ** ... Heating Capacity Function of Temperature Curve Name = OS:CURVE:BIQUADRATIC 11 output is not equal to 1.0 (+ or - 10%) at rated conditions.\n   **   ~~~   ** ... Curve output at rated conditions = 0.786\n   ** Warning ** GetDXCoils: Coil:Heating:DX:SingleSpeed=\"PTHP 1 SPD DX HTG COIL 7\" curve values\n   **   ~~~   ** ... Heating Capacity Function of Temperature Curve Name = OS:CURVE:BIQUADRATIC 11 output is not equal to 1.0 (+ or - 10%) at rated conditions.\n   **   ~~~   ** ... Curve output at rated conditions = 0.786\n   ** Warning ** GetDXCoils: Coil:Heating:DX:SingleSpeed=\"PTHP 1 SPD DX HTG COIL 11\" curve values\n   **   ~~~   ** ... Heating Capacity Function of Temperature Curve Name = OS:CURVE:BIQUADRATIC 11 output is not equal to 1.0 (+ or - 10%) at rated conditions.\n   **   ~~~   ** ... Curve output at rated conditions = 0.786\n   ** Warning ** GetDXCoils: Coil:Heating:DX:SingleSpeed=\"PTHP 1 SPD DX HTG COIL 9\" curve values\n   **   ~~~   ** ... Heating Capacity Function of Temperature Curve Name = OS:CURVE:BIQUADRATIC 11 output is not equal to 1.0 (+ or - 10%) at rated conditions.\n   **   ~~~   ** ... Curve output at rated conditions = 0.786\n   ** Warning ** GetDXCoils: Coil:Heating:DX:SingleSpeed=\"PTHP 1 SPD DX HTG COIL 3\" curve values\n   **   ~~~   ** ... Heating Capacity Function of Temperature Curve Name = OS:CURVE:BIQUADRATIC 11 output is not equal to 1.0 (+ or - 10%) at rated conditions.\n   **   ~~~   ** ... Curve output at rated conditions = 0.786\n   ** Warning ** GetDXCoils: Coil:Heating:DX:SingleSpeed=\"PTHP 1 SPD DX HTG COIL 13\" curve values\n   **   ~~~   ** ... Heating Capacity Function of Temperature Curve Name = OS:CURVE:BIQUADRATIC 11 output is not equal to 1.0 (+ or - 10%) at rated conditions.\n   **   ~~~   ** ... Curve output at rated conditions = 0.786\n   ** Warning ** GetDXCoils: Coil:Heating:DX:SingleSpeed=\"PTHP 1 SPD DX HTG COIL 14\" curve values\n   **   ~~~   ** ... Heating Capacity Function of Temperature Curve Name = OS:CURVE:BIQUADRATIC 11 output is not equal to 1.0 (+ or - 10%) at rated conditions.\n   **   ~~~   ** ... Curve output at rated conditions = 0.786\n   ** Warning ** GetDXCoils: Coil:Heating:DX:SingleSpeed=\"PTHP 1 SPD DX HTG COIL 15\" curve values\n   **   ~~~   ** ... Heating Capacity Function of Temperature Curve Name = OS:CURVE:BIQUADRATIC 11 output is not equal to 1.0 (+ or - 10%) at rated conditions.\n   **   ~~~   ** ... Curve output at rated conditions = 0.786\n   ** Warning ** GetDXCoils: Coil:Heating:DX:SingleSpeed=\"PTHP 1 SPD DX HTG COIL 1\" curve values\n   **   ~~~   ** ... Heating Capacity Function of Temperature Curve Name = OS:CURVE:BIQUADRATIC 11 output is not equal to 1.0 (+ or - 10%) at rated conditions.\n   **   ~~~   ** ... Curve output at rated conditions = 0.786\n   ** Warning ** GetDXCoils: Coil:Heating:DX:SingleSpeed=\"PTHP 1 SPD DX HTG COIL 2\" curve values\n   **   ~~~   ** ... Heating Capacity Function of Temperature Curve Name = OS:CURVE:BIQUADRATIC 11 output is not equal to 1.0 (+ or - 10%) at rated conditions.\n   **   ~~~   ** ... Curve output at rated conditions = 0.786\n   ** Warning ** GetDXCoils: Coil:Heating:DX:SingleSpeed=\"PTHP 1 SPD DX HTG COIL 8\" curve values\n   **   ~~~   ** ... Heating Capacity Function of Temperature Curve Name = OS:CURVE:BIQUADRATIC 11 output is not equal to 1.0 (+ or - 10%) at rated conditions.\n   **   ~~~   ** ... Curve output at rated conditions = 0.786\n   ** Warning ** GetDXCoils: Coil:Heating:DX:SingleSpeed=\"PTHP 1 SPD DX HTG COIL 22\" curve values\n   **   ~~~   ** ... Heating Capacity Function of Temperature Curve Name = OS:CURVE:BIQUADRATIC 11 output is not equal to 1.0 (+ or - 10%) at rated conditions.\n   **   ~~~   ** ... Curve output at rated conditions = 0.786\n   ** Warning ** GetDXCoils: Coil:Heating:DX:SingleSpeed=\"PTHP 1 SPD DX HTG COIL 20\" curve values\n   **   ~~~   ** ... Heating Capacity Function of Temperature Curve Name = OS:CURVE:BIQUADRATIC 11 output is not equal to 1.0 (+ or - 10%) at rated conditions.\n   **   ~~~   ** ... Curve output at rated conditions = 0.786\n   ** Warning ** GetDXCoils: Coil:Heating:DX:SingleSpeed=\"PTHP 1 SPD DX HTG COIL 21\" curve values\n   **   ~~~   ** ... Heating Capacity Function of Temperature Curve Name = OS:CURVE:BIQUADRATIC 11 output is not equal to 1.0 (+ or - 10%) at rated conditions.\n   **   ~~~   ** ... Curve output at rated conditions = 0.786\n   ** Warning ** GetDXCoils: Coil:Heating:DX:SingleSpeed=\"PTHP 1 SPD DX HTG COIL 19\" curve values\n   **   ~~~   ** ... Heating Capacity Function of Temperature Curve Name = OS:CURVE:BIQUADRATIC 11 output is not equal to 1.0 (+ or - 10%) at rated conditions.\n   **   ~~~   ** ... Curve output at rated conditions = 0.786\n   ** Warning ** GetDXCoils: Coil:Heating:DX:SingleSpeed=\"PTHP 1 SPD DX HTG COIL 10\" curve values\n   **   ~~~   ** ... Heating Capacity Function of Temperature Curve Name = OS:CURVE:BIQUADRATIC 11 output is not equal to 1.0 (+ or - 10%) at rated conditions.\n   **   ~~~   ** ... Curve output at rated conditions = 0.786\n   ** Warning ** GetDXCoils: Coil:Heating:DX:SingleSpeed=\"PTHP 1 SPD DX HTG COIL 5\" curve values\n   **   ~~~   ** ... Heating Capacity Function of Temperature Curve Name = OS:CURVE:BIQUADRATIC 11 output is not equal to 1.0 (+ or - 10%) at rated conditions.\n   **   ~~~   ** ... Curve output at rated conditions = 0.786\n   ** Warning ** GetDXCoils: Coil:Heating:DX:SingleSpeed=\"PTHP 1 SPD DX HTG COIL 12\" curve values\n   **   ~~~   ** ... Heating Capacity Function of Temperature Curve Name = OS:CURVE:BIQUADRATIC 11 output is not equal to 1.0 (+ or - 10%) at rated conditions.\n   **   ~~~   ** ... Curve output at rated conditions = 0.786\n   ** Warning ** GetDXCoils: Coil:Heating:DX:SingleSpeed=\"PTHP 1 SPD DX HTG COIL 18\" curve values\n   **   ~~~   ** ... Heating Capacity Function of Temperature Curve Name = OS:CURVE:BIQUADRATIC 11 output is not equal to 1.0 (+ or - 10%) at rated conditions.\n   **   ~~~   ** ... Curve output at rated conditions = 0.786\n   ** Warning ** GetDXCoils: Coil:Heating:DX:SingleSpeed=\"PTHP 1 SPD DX HTG COIL 4\" curve values\n   **   ~~~   ** ... Heating Capacity Function of Temperature Curve Name = OS:CURVE:BIQUADRATIC 11 output is not equal to 1.0 (+ or - 10%) at rated conditions.\n   **   ~~~   ** ... Curve output at rated conditions = 0.786\n   ** Warning ** GetDXCoils: Coil:Heating:DX:SingleSpeed=\"PTHP 1 SPD DX HTG COIL 17\" curve values\n   **   ~~~   ** ... Heating Capacity Function of Temperature Curve Name = OS:CURVE:BIQUADRATIC 11 output is not equal to 1.0 (+ or - 10%) at rated conditions.\n   **   ~~~   ** ... Curve output at rated conditions = 0.786\n   ** Warning ** GetDXCoils: Coil:Heating:DX:SingleSpeed=\"PTHP 1 SPD DX HTG COIL 16\" curve values\n   **   ~~~   ** ... Heating Capacity Function of Temperature Curve Name = OS:CURVE:BIQUADRATIC 11 output is not equal to 1.0 (+ or - 10%) at rated conditions.\n   **   ~~~   ** ... Curve output at rated conditions = 0.786\n   ** Warning ** ZoneHVAC:PackagedTerminalHeatPump = PTHP\n   **   ~~~   ** Input for Heating Supply Air Flow Rate Method = SupplyAirFlowRate.\n   **   ~~~   ** Suspicious Heating Supply Air Flow Rate = 2.2204460E-016 when heating coil is present.\n   ** Warning ** ZoneHVAC:PackagedTerminalHeatPump = PTHP 6\n   **   ~~~   ** Input for Heating Supply Air Flow Rate Method = SupplyAirFlowRate.\n   **   ~~~   ** Suspicious Heating Supply Air Flow Rate = 2.2204460E-016 when heating coil is present.\n   ** Warning ** ZoneHVAC:PackagedTerminalHeatPump = PTHP 7\n   **   ~~~   ** Input for Heating Supply Air Flow Rate Method = SupplyAirFlowRate.\n   **   ~~~   ** Suspicious Heating Supply Air Flow Rate = 2.2204460E-016 when heating coil is present.\n   ** Warning ** ZoneHVAC:PackagedTerminalHeatPump = PTHP 11\n   **   ~~~   ** Input for Heating Supply Air Flow Rate Method = SupplyAirFlowRate.\n   **   ~~~   ** Suspicious Heating Supply Air Flow Rate = 2.2204460E-016 when heating coil is present.\n   ** Warning ** ZoneHVAC:PackagedTerminalHeatPump = PTHP 9\n   **   ~~~   ** Input for Heating Supply Air Flow Rate Method = SupplyAirFlowRate.\n   **   ~~~   ** Suspicious Heating Supply Air Flow Rate = 2.2204460E-016 when heating coil is present.\n   ** Warning ** ZoneHVAC:PackagedTerminalHeatPump = PTHP 3\n   **   ~~~   ** Input for Heating Supply Air Flow Rate Method = SupplyAirFlowRate.\n   **   ~~~   ** Suspicious Heating Supply Air Flow Rate = 2.2204460E-016 when heating coil is present.\n   ** Warning ** ZoneHVAC:PackagedTerminalHeatPump = PTHP 13\n   **   ~~~   ** Input for Heating Supply Air Flow Rate Method = SupplyAirFlowRate.\n   **   ~~~   ** Suspicious Heating Supply Air Flow Rate = 2.2204460E-016 when heating coil is present.\n   ** Warning ** ZoneHVAC:PackagedTerminalHeatPump = PTHP 14\n   **   ~~~   ** Input for Heating Supply Air Flow Rate Method = SupplyAirFlowRate.\n   **   ~~~   ** Suspicious Heating Supply Air Flow Rate = 2.2204460E-016 when heating coil is present.\n   ** Warning ** ZoneHVAC:PackagedTerminalHeatPump = PTHP 15\n   **   ~~~   ** Input for Heating Supply Air Flow Rate Method = SupplyAirFlowRate.\n   **   ~~~   ** Suspicious Heating Supply Air Flow Rate = 2.2204460E-016 when heating coil is present.\n   ** Warning ** ZoneHVAC:PackagedTerminalHeatPump = PTHP 1\n   **   ~~~   ** Input for Heating Supply Air Flow Rate Method = SupplyAirFlowRate.\n   **   ~~~   ** Suspicious Heating Supply Air Flow Rate = 2.2204460E-016 when heating coil is present.\n   ** Warning ** ZoneHVAC:PackagedTerminalHeatPump = PTHP 2\n   **   ~~~   ** Input for Heating Supply Air Flow Rate Method = SupplyAirFlowRate.\n   **   ~~~   ** Suspicious Heating Supply Air Flow Rate = 2.2204460E-016 when heating coil is present.\n   ** Warning ** ZoneHVAC:PackagedTerminalHeatPump = PTHP 8\n   **   ~~~   ** Input for Heating Supply Air Flow Rate Method = SupplyAirFlowRate.\n   **   ~~~   ** Suspicious Heating Supply Air Flow Rate = 2.2204460E-016 when heating coil is present.\n   ** Warning ** ZoneHVAC:PackagedTerminalHeatPump = PTHP 22\n   **   ~~~   ** Input for Heating Supply Air Flow Rate Method = SupplyAirFlowRate.\n   **   ~~~   ** Suspicious Heating Supply Air Flow Rate = 2.2204460E-016 when heating coil is present.\n   ** Warning ** ZoneHVAC:PackagedTerminalHeatPump = PTHP 20\n   **   ~~~   ** Input for Heating Supply Air Flow Rate Method = SupplyAirFlowRate.\n   **   ~~~   ** Suspicious Heating Supply Air Flow Rate = 2.2204460E-016 when heating coil is present.\n   ** Warning ** ZoneHVAC:PackagedTerminalHeatPump = PTHP 21\n   **   ~~~   ** Input for Heating Supply Air Flow Rate Method = SupplyAirFlowRate.\n   **   ~~~   ** Suspicious Heating Supply Air Flow Rate = 2.2204460E-016 when heating coil is present.\n   ** Warning ** ZoneHVAC:PackagedTerminalHeatPump = PTHP 19\n   **   ~~~   ** Input for Heating Supply Air Flow Rate Method = SupplyAirFlowRate.\n   **   ~~~   ** Suspicious Heating Supply Air Flow Rate = 2.2204460E-016 when heating coil is present.\n   ** Warning ** ZoneHVAC:PackagedTerminalHeatPump = PTHP 10\n   **   ~~~   ** Input for Heating Supply Air Flow Rate Method = SupplyAirFlowRate.\n   **   ~~~   ** Suspicious Heating Supply Air Flow Rate = 2.2204460E-016 when heating coil is present.\n   ** Warning ** ZoneHVAC:PackagedTerminalHeatPump = PTHP 5\n   **   ~~~   ** Input for Heating Supply Air Flow Rate Method = SupplyAirFlowRate.\n   **   ~~~   ** Suspicious Heating Supply Air Flow Rate = 2.2204460E-016 when heating coil is present.\n   ** Warning ** ZoneHVAC:PackagedTerminalHeatPump = PTHP 12\n   **   ~~~   ** Input for Heating Supply Air Flow Rate Method = SupplyAirFlowRate.\n   **   ~~~   ** Suspicious Heating Supply Air Flow Rate = 2.2204460E-016 when heating coil is present.\n   ** Warning ** ZoneHVAC:PackagedTerminalHeatPump = PTHP 18\n   **   ~~~   ** Input for Heating Supply Air Flow Rate Method = SupplyAirFlowRate.\n   **   ~~~   ** Suspicious Heating Supply Air Flow Rate = 2.2204460E-016 when heating coil is present.\n   ** Warning ** ZoneHVAC:PackagedTerminalHeatPump = PTHP 4\n   **   ~~~   ** Input for Heating Supply Air Flow Rate Method = SupplyAirFlowRate.\n   **   ~~~   ** Suspicious Heating Supply Air Flow Rate = 2.2204460E-016 when heating coil is present.\n   ** Warning ** ZoneHVAC:PackagedTerminalHeatPump = PTHP 17\n   **   ~~~   ** Input for Heating Supply Air Flow Rate Method = SupplyAirFlowRate.\n   **   ~~~   ** Suspicious Heating Supply Air Flow Rate = 2.2204460E-016 when heating coil is present.\n   ** Warning ** ZoneHVAC:PackagedTerminalHeatPump = PTHP 16\n   **   ~~~   ** Input for Heating Supply Air Flow Rate Method = SupplyAirFlowRate.\n   **   ~~~   ** Suspicious Heating Supply Air Flow Rate = 2.2204460E-016 when heating coil is present.\n   ************* Beginning Plant Sizing Calculations\n   ** Warning ** The Standard Ratings is calculated for Coil:Heating:DX:SingleSpeed = PTHP 1 SPD DX HTG COIL but not at the AHRI test condition due to curve out of bound.\n   **   ~~~   **  Review the Standard Ratings calculations in the Engineering Reference for this coil type. Also, use Output:Diagnostics, DisplayExtraWarnings for further guidance.\n   ** Warning ** Sizing: Coil:Heating:DX:SingleSpeed PTHP 1 SPD DX HTG COIL: Rated air volume flow rate per watt of rated total heating capacity is out of range.\n   **   ~~~   ** Min Rated Vol Flow Per Watt=[4.027E-005], Rated Vol Flow Per Watt=[19461187711473472.000], Max Rated Vol Flow Per Watt=[6.041E-005]. See Input-Output Reference Manual for valid range.\n   ** Warning ** Coil:Heating:DX:SingleSpeed \"PTHP 1 SPD DX HTG COIL\" - Air volume flow rate per watt of rated total heating capacity is out of range at 19376547047163076. m3/s/W.\n   **   ~~~   **  During Warmup, Environment=MONTREAL INT'L ANN CLG .4% CONDNS DB=>MWB, at Simulation time=07/21 00:00 - 00:10\n   **   ~~~   ** Expected range for VolumeFlowPerRatedTotalCapacity=[2.684E-005--8.056E-005]\n   **   ~~~   ** Possible causes include inconsistent air flow rates in system components or\n   **   ~~~   ** inconsistent supply air fan operation modes in coil and unitary system objects.\n   ** Warning ** The Standard Ratings is calculated for Coil:Heating:DX:SingleSpeed = PTHP 1 SPD DX HTG COIL 6 but not at the AHRI test condition due to curve out of bound.\n   **   ~~~   **  Review the Standard Ratings calculations in the Engineering Reference for this coil type. Also, use Output:Diagnostics, DisplayExtraWarnings for further guidance.\n   ** Warning ** Sizing: Coil:Heating:DX:SingleSpeed PTHP 1 SPD DX HTG COIL 6: Rated air volume flow rate per watt of rated total heating capacity is out of range.\n   **   ~~~   ** Min Rated Vol Flow Per Watt=[4.027E-005], Rated Vol Flow Per Watt=[31864719622730892.000], Max Rated Vol Flow Per Watt=[6.041E-005]. See Input-Output Reference Manual for valid range.\n   ** Warning ** Coil:Heating:DX:SingleSpeed \"PTHP 1 SPD DX HTG COIL 6\" - Air volume flow rate per watt of rated total heating capacity is out of range at 31726133474911020. m3/s/W.\n   **   ~~~   **  During Warmup, Environment=MONTREAL INT'L ANN CLG .4% CONDNS DB=>MWB, at Simulation time=07/21 00:00 - 00:10\n   **   ~~~   ** Expected range for VolumeFlowPerRatedTotalCapacity=[2.684E-005--8.056E-005]\n   **   ~~~   ** Possible causes include inconsistent air flow rates in system components or\n   **   ~~~   ** inconsistent supply air fan operation modes in coil and unitary system objects.\n   ** Warning ** The Standard Ratings is calculated for Coil:Heating:DX:SingleSpeed = PTHP 1 SPD DX HTG COIL 7 but not at the AHRI test condition due to curve out of bound.\n   **   ~~~   **  Review the Standard Ratings calculations in the Engineering Reference for this coil type. Also, use Output:Diagnostics, DisplayExtraWarnings for further guidance.\n   ** Warning ** Sizing: Coil:Heating:DX:SingleSpeed PTHP 1 SPD DX HTG COIL 7: Rated air volume flow rate per watt of rated total heating capacity is out of range.\n   **   ~~~   ** Min Rated Vol Flow Per Watt=[4.027E-005], Rated Vol Flow Per Watt=[61276179124542872.000], Max Rated Vol Flow Per Watt=[6.041E-005]. See Input-Output Reference Manual for valid range.\n   ** Warning ** Coil:Heating:DX:SingleSpeed \"PTHP 1 SPD DX HTG COIL 7\" - Air volume flow rate per watt of rated total heating capacity is out of range at 61009676556231152. m3/s/W.\n   **   ~~~   **  During Warmup, Environment=MONTREAL INT'L ANN CLG .4% CONDNS DB=>MWB, at Simulation time=07/21 00:00 - 00:10\n   **   ~~~   ** Expected range for VolumeFlowPerRatedTotalCapacity=[2.684E-005--8.056E-005]\n   **   ~~~   ** Possible causes include inconsistent air flow rates in system components or\n   **   ~~~   ** inconsistent supply air fan operation modes in coil and unitary system objects.\n   ** Warning ** The Standard Ratings is calculated for Coil:Heating:DX:SingleSpeed = PTHP 1 SPD DX HTG COIL 11 but not at the AHRI test condition due to curve out of bound.\n   **   ~~~   **  Review the Standard Ratings calculations in the Engineering Reference for this coil type. Also, use Output:Diagnostics, DisplayExtraWarnings for further guidance.\n   ** Warning ** Sizing: Coil:Heating:DX:SingleSpeed PTHP 1 SPD DX HTG COIL 11: Rated air volume flow rate per watt of rated total heating capacity is out of range.\n   **   ~~~   ** Min Rated Vol Flow Per Watt=[4.027E-005], Rated Vol Flow Per Watt=[5296119520596577.000], Max Rated Vol Flow Per Watt=[6.041E-005]. See Input-Output Reference Manual for valid range.\n   ** Warning ** Coil:Heating:DX:SingleSpeed \"PTHP 1 SPD DX HTG COIL 11\" - Air volume flow rate per watt of rated total heating capacity is out of range at 5273085619421764. m3/s/W.\n   **   ~~~   **  During Warmup, Environment=MONTREAL INT'L ANN CLG .4% CONDNS DB=>MWB, at Simulation time=07/21 00:00 - 00:10\n   **   ~~~   ** Expected range for VolumeFlowPerRatedTotalCapacity=[2.684E-005--8.056E-005]\n   **   ~~~   ** Possible causes include inconsistent air flow rates in system components or\n   **   ~~~   ** inconsistent supply air fan operation modes in coil and unitary system objects.\n   ** Warning ** The Standard Ratings is calculated for Coil:Heating:DX:SingleSpeed = PTHP 1 SPD DX HTG COIL 9 but not at the AHRI test condition due to curve out of bound.\n   **   ~~~   **  Review the Standard Ratings calculations in the Engineering Reference for this coil type. Also, use Output:Diagnostics, DisplayExtraWarnings for further guidance.\n   ** Warning ** Sizing: Coil:Heating:DX:SingleSpeed PTHP 1 SPD DX HTG COIL 9: Rated air volume flow rate per watt of rated total heating capacity is out of range.\n   **   ~~~   ** Min Rated Vol Flow Per Watt=[4.027E-005], Rated Vol Flow Per Watt=[39720939002212904.000], Max Rated Vol Flow Per Watt=[6.041E-005]. See Input-Output Reference Manual for valid range.\n   ** Warning ** Coil:Heating:DX:SingleSpeed \"PTHP 1 SPD DX HTG COIL 9\" - Air volume flow rate per watt of rated total heating capacity is out of range at 39548184558135576. m3/s/W.\n   **   ~~~   **  During Warmup, Environment=MONTREAL INT'L ANN CLG .4% CONDNS DB=>MWB, at Simulation time=07/21 00:00 - 00:10\n   **   ~~~   ** Expected range for VolumeFlowPerRatedTotalCapacity=[2.684E-005--8.056E-005]\n   **   ~~~   ** Possible causes include inconsistent air flow rates in system components or\n   **   ~~~   ** inconsistent supply air fan operation modes in coil and unitary system objects.\n   ** Warning ** The Standard Ratings is calculated for Coil:Heating:DX:SingleSpeed = PTHP 1 SPD DX HTG COIL 3 but not at the AHRI test condition due to curve out of bound.\n   **   ~~~   **  Review the Standard Ratings calculations in the Engineering Reference for this coil type. Also, use Output:Diagnostics, DisplayExtraWarnings for further guidance.\n   ** Warning ** Sizing: Coil:Heating:DX:SingleSpeed PTHP 1 SPD DX HTG COIL 3: Rated air volume flow rate per watt of rated total heating capacity is out of range.\n   **   ~~~   ** Min Rated Vol Flow Per Watt=[4.027E-005], Rated Vol Flow Per Watt=[4158963487587129.000], Max Rated Vol Flow Per Watt=[6.041E-005]. See Input-Output Reference Manual for valid range.\n   ** Warning ** Coil:Heating:DX:SingleSpeed \"PTHP 1 SPD DX HTG COIL 3\" - Air volume flow rate per watt of rated total heating capacity is out of range at 4140875309329410. m3/s/W.\n   **   ~~~   **  During Warmup, Environment=MONTREAL INT'L ANN CLG .4% CONDNS DB=>MWB, at Simulation time=07/21 00:00 - 00:10\n   **   ~~~   ** Expected range for VolumeFlowPerRatedTotalCapacity=[2.684E-005--8.056E-005]\n   **   ~~~   ** Possible causes include inconsistent air flow rates in system components or\n   **   ~~~   ** inconsistent supply air fan operation modes in coil and unitary system objects.\n   ** Warning ** The Standard Ratings is calculated for Coil:Heating:DX:SingleSpeed = PTHP 1 SPD DX HTG COIL 13 but not at the AHRI test condition due to curve out of bound.\n   **   ~~~   **  Review the Standard Ratings calculations in the Engineering Reference for this coil type. Also, use Output:Diagnostics, DisplayExtraWarnings for further guidance.\n   ** Warning ** Sizing: Coil:Heating:DX:SingleSpeed PTHP 1 SPD DX HTG COIL 13: Rated air volume flow rate per watt of rated total heating capacity is out of range.\n   **   ~~~   ** Min Rated Vol Flow Per Watt=[4.027E-005], Rated Vol Flow Per Watt=[39776342915060728.000], Max Rated Vol Flow Per Watt=[6.041E-005]. See Input-Output Reference Manual for valid range.\n   ** Warning ** Coil:Heating:DX:SingleSpeed \"PTHP 1 SPD DX HTG COIL 13\" - Air volume flow rate per watt of rated total heating capacity is out of range at 39603347508095712. m3/s/W.\n   **   ~~~   **  During Warmup, Environment=MONTREAL INT'L ANN CLG .4% CONDNS DB=>MWB, at Simulation time=07/21 00:00 - 00:10\n   **   ~~~   ** Expected range for VolumeFlowPerRatedTotalCapacity=[2.684E-005--8.056E-005]\n   **   ~~~   ** Possible causes include inconsistent air flow rates in system components or\n   **   ~~~   ** inconsistent supply air fan operation modes in coil and unitary system objects.\n   ** Warning ** The Standard Ratings is calculated for Coil:Heating:DX:SingleSpeed = PTHP 1 SPD DX HTG COIL 14 but not at the AHRI test condition due to curve out of bound.\n   **   ~~~   **  Review the Standard Ratings calculations in the Engineering Reference for this coil type. Also, use Output:Diagnostics, DisplayExtraWarnings for further guidance.\n   ** Warning ** Sizing: Coil:Heating:DX:SingleSpeed PTHP 1 SPD DX HTG COIL 14: Rated air volume flow rate per watt of rated total heating capacity is out of range.\n   **   ~~~   ** Min Rated Vol Flow Per Watt=[4.027E-005], Rated Vol Flow Per Watt=[32658461869029836.000], Max Rated Vol Flow Per Watt=[6.041E-005]. See Input-Output Reference Manual for valid range.\n   ** Warning ** Coil:Heating:DX:SingleSpeed \"PTHP 1 SPD DX HTG COIL 14\" - Air volume flow rate per watt of rated total heating capacity is out of range at 32516423574711304. m3/s/W.\n   **   ~~~   **  During Warmup, Environment=MONTREAL INT'L ANN CLG .4% CONDNS DB=>MWB, at Simulation time=07/21 00:00 - 00:10\n   **   ~~~   ** Expected range for VolumeFlowPerRatedTotalCapacity=[2.684E-005--8.056E-005]\n   **   ~~~   ** Possible causes include inconsistent air flow rates in system components or\n   **   ~~~   ** inconsistent supply air fan operation modes in coil and unitary system objects.\n   ** Warning ** The Standard Ratings is calculated for Coil:Heating:DX:SingleSpeed = PTHP 1 SPD DX HTG COIL 15 but not at the AHRI test condition due to curve out of bound.\n   **   ~~~   **  Review the Standard Ratings calculations in the Engineering Reference for this coil type. Also, use Output:Diagnostics, DisplayExtraWarnings for further guidance.\n   ** Warning ** Sizing: Coil:Heating:DX:SingleSpeed PTHP 1 SPD DX HTG COIL 15: Rated air volume flow rate per watt of rated total heating capacity is out of range.\n   **   ~~~   ** Min Rated Vol Flow Per Watt=[4.027E-005], Rated Vol Flow Per Watt=[31912318095461944.000], Max Rated Vol Flow Per Watt=[6.041E-005]. See Input-Output Reference Manual for valid range.\n   ** Warning ** Coil:Heating:DX:SingleSpeed \"PTHP 1 SPD DX HTG COIL 15\" - Air volume flow rate per watt of rated total heating capacity is out of range at 31773524932201296. m3/s/W.\n   **   ~~~   **  During Warmup, Environment=MONTREAL INT'L ANN CLG .4% CONDNS DB=>MWB, at Simulation time=07/21 00:00 - 00:10\n   **   ~~~   ** Expected range for VolumeFlowPerRatedTotalCapacity=[2.684E-005--8.056E-005]\n   **   ~~~   ** Possible causes include inconsistent air flow rates in system components or\n   **   ~~~   ** inconsistent supply air fan operation modes in coil and unitary system objects.\n   ** Warning ** The Standard Ratings is calculated for Coil:Heating:DX:SingleSpeed = PTHP 1 SPD DX HTG COIL 1 but not at the AHRI test condition due to curve out of bound.\n   **   ~~~   **  Review the Standard Ratings calculations in the Engineering Reference for this coil type. Also, use Output:Diagnostics, DisplayExtraWarnings for further guidance.\n   ** Warning ** Sizing: Coil:Heating:DX:SingleSpeed PTHP 1 SPD DX HTG COIL 1: Rated air volume flow rate per watt of rated total heating capacity is out of range.\n   **   ~~~   ** Min Rated Vol Flow Per Watt=[4.027E-005], Rated Vol Flow Per Watt=[5304121270540755.000], Max Rated Vol Flow Per Watt=[6.041E-005]. See Input-Output Reference Manual for valid range.\n   ** Warning ** Coil:Heating:DX:SingleSpeed \"PTHP 1 SPD DX HTG COIL 1\" - Air volume flow rate per watt of rated total heating capacity is out of range at 5281052568127654. m3/s/W.\n   **   ~~~   **  During Warmup, Environment=MONTREAL INT'L ANN CLG .4% CONDNS DB=>MWB, at Simulation time=07/21 00:00 - 00:10\n   **   ~~~   ** Expected range for VolumeFlowPerRatedTotalCapacity=[2.684E-005--8.056E-005]\n   **   ~~~   ** Possible causes include inconsistent air flow rates in system components or\n   **   ~~~   ** inconsistent supply air fan operation modes in coil and unitary system objects.\n   ** Warning ** The Standard Ratings is calculated for Coil:Heating:DX:SingleSpeed = PTHP 1 SPD DX HTG COIL 2 but not at the AHRI test condition due to curve out of bound.\n   **   ~~~   **  Review the Standard Ratings calculations in the Engineering Reference for this coil type. Also, use Output:Diagnostics, DisplayExtraWarnings for further guidance.\n   ** Warning ** Sizing: Coil:Heating:DX:SingleSpeed PTHP 1 SPD DX HTG COIL 2: Rated air volume flow rate per watt of rated total heating capacity is out of range.\n   **   ~~~   ** Min Rated Vol Flow Per Watt=[4.027E-005], Rated Vol Flow Per Watt=[4157463768888513.500], Max Rated Vol Flow Per Watt=[6.041E-005]. See Input-Output Reference Manual for valid range.\n   ** Warning ** Coil:Heating:DX:SingleSpeed \"PTHP 1 SPD DX HTG COIL 2\" - Air volume flow rate per watt of rated total heating capacity is out of range at 4139382113212500. m3/s/W.\n   **   ~~~   **  During Warmup, Environment=MONTREAL INT'L ANN CLG .4% CONDNS DB=>MWB, at Simulation time=07/21 00:00 - 00:10\n   **   ~~~   ** Expected range for VolumeFlowPerRatedTotalCapacity=[2.684E-005--8.056E-005]\n   **   ~~~   ** Possible causes include inconsistent air flow rates in system components or\n   **   ~~~   ** inconsistent supply air fan operation modes in coil and unitary system objects.\n   ** Warning ** The Standard Ratings is calculated for Coil:Heating:DX:SingleSpeed = PTHP 1 SPD DX HTG COIL 8 but not at the AHRI test condition due to curve out of bound.\n   **   ~~~   **  Review the Standard Ratings calculations in the Engineering Reference for this coil type. Also, use Output:Diagnostics, DisplayExtraWarnings for further guidance.\n   ** Warning ** Sizing: Coil:Heating:DX:SingleSpeed PTHP 1 SPD DX HTG COIL 8: Rated air volume flow rate per watt of rated total heating capacity is out of range.\n   **   ~~~   ** Min Rated Vol Flow Per Watt=[4.027E-005], Rated Vol Flow Per Watt=[3701902130199728.000], Max Rated Vol Flow Per Watt=[6.041E-005]. See Input-Output Reference Manual for valid range.\n   ** Warning ** Coil:Heating:DX:SingleSpeed \"PTHP 1 SPD DX HTG COIL 8\" - Air volume flow rate per watt of rated total heating capacity is out of range at 3685801804764428. m3/s/W.\n   **   ~~~   **  During Warmup, Environment=MONTREAL INT'L ANN CLG .4% CONDNS DB=>MWB, at Simulation time=07/21 00:00 - 00:10\n   **   ~~~   ** Expected range for VolumeFlowPerRatedTotalCapacity=[2.684E-005--8.056E-005]\n   **   ~~~   ** Possible causes include inconsistent air flow rates in system components or\n   **   ~~~   ** inconsistent supply air fan operation modes in coil and unitary system objects.\n   ** Warning ** The Standard Ratings is calculated for Coil:Heating:DX:SingleSpeed = PTHP 1 SPD DX HTG COIL 22 but not at the AHRI test condition due to curve out of bound.\n   **   ~~~   **  Review the Standard Ratings calculations in the Engineering Reference for this coil type. Also, use Output:Diagnostics, DisplayExtraWarnings for further guidance.\n   ** Warning ** Sizing: Coil:Heating:DX:SingleSpeed PTHP 1 SPD DX HTG COIL 22: Rated air volume flow rate per watt of rated total heating capacity is out of range.\n   **   ~~~   ** Min Rated Vol Flow Per Watt=[4.027E-005], Rated Vol Flow Per Watt=[4046050200085428.500], Max Rated Vol Flow Per Watt=[6.041E-005]. See Input-Output Reference Manual for valid range.\n   ** Warning ** Coil:Heating:DX:SingleSpeed \"PTHP 1 SPD DX HTG COIL 22\" - Air volume flow rate per watt of rated total heating capacity is out of range at 4028453104684794. m3/s/W.\n   **   ~~~   **  During Warmup, Environment=MONTREAL INT'L ANN CLG .4% CONDNS DB=>MWB, at Simulation time=07/21 00:00 - 00:10\n   **   ~~~   ** Expected range for VolumeFlowPerRatedTotalCapacity=[2.684E-005--8.056E-005]\n   **   ~~~   ** Possible causes include inconsistent air flow rates in system components or\n   **   ~~~   ** inconsistent supply air fan operation modes in coil and unitary system objects.\n   ** Warning ** The Standard Ratings is calculated for Coil:Heating:DX:SingleSpeed = PTHP 1 SPD DX HTG COIL 20 but not at the AHRI test condition due to curve out of bound.\n   **   ~~~   **  Review the Standard Ratings calculations in the Engineering Reference for this coil type. Also, use Output:Diagnostics, DisplayExtraWarnings for further guidance.\n   ** Warning ** Sizing: Coil:Heating:DX:SingleSpeed PTHP 1 SPD DX HTG COIL 20: Rated air volume flow rate per watt of rated total heating capacity is out of range.\n   **   ~~~   ** Min Rated Vol Flow Per Watt=[4.027E-005], Rated Vol Flow Per Watt=[6917117904867232.000], Max Rated Vol Flow Per Watt=[6.041E-005]. See Input-Output Reference Manual for valid range.\n   ** Warning ** Coil:Heating:DX:SingleSpeed \"PTHP 1 SPD DX HTG COIL 20\" - Air volume flow rate per watt of rated total heating capacity is out of range at 6887033951962542. m3/s/W.\n   **   ~~~   **  During Warmup, Environment=MONTREAL INT'L ANN CLG .4% CONDNS DB=>MWB, at Simulation time=07/21 00:00 - 00:10\n   **   ~~~   ** Expected range for VolumeFlowPerRatedTotalCapacity=[2.684E-005--8.056E-005]\n   **   ~~~   ** Possible causes include inconsistent air flow rates in system components or\n   **   ~~~   ** inconsistent supply air fan operation modes in coil and unitary system objects.\n   ** Warning ** The Standard Ratings is calculated for Coil:Heating:DX:SingleSpeed = PTHP 1 SPD DX HTG COIL 21 but not at the AHRI test condition due to curve out of bound.\n   **   ~~~   **  Review the Standard Ratings calculations in the Engineering Reference for this coil type. Also, use Output:Diagnostics, DisplayExtraWarnings for further guidance.\n   ** Warning ** Sizing: Coil:Heating:DX:SingleSpeed PTHP 1 SPD DX HTG COIL 21: Rated air volume flow rate per watt of rated total heating capacity is out of range.\n   **   ~~~   ** Min Rated Vol Flow Per Watt=[4.027E-005], Rated Vol Flow Per Watt=[4040962499309723.000], Max Rated Vol Flow Per Watt=[6.041E-005]. See Input-Output Reference Manual for valid range.\n   ** Warning ** Coil:Heating:DX:SingleSpeed \"PTHP 1 SPD DX HTG COIL 21\" - Air volume flow rate per watt of rated total heating capacity is out of range at 4023387531354743. m3/s/W.\n   **   ~~~   **  During Warmup, Environment=MONTREAL INT'L ANN CLG .4% CONDNS DB=>MWB, at Simulation time=07/21 00:00 - 00:10\n   **   ~~~   ** Expected range for VolumeFlowPerRatedTotalCapacity=[2.684E-005--8.056E-005]\n   **   ~~~   ** Possible causes include inconsistent air flow rates in system components or\n   **   ~~~   ** inconsistent supply air fan operation modes in coil and unitary system objects.\n   ** Warning ** The Standard Ratings is calculated for Coil:Heating:DX:SingleSpeed = PTHP 1 SPD DX HTG COIL 19 but not at the AHRI test condition due to curve out of bound.\n   **   ~~~   **  Review the Standard Ratings calculations in the Engineering Reference for this coil type. Also, use Output:Diagnostics, DisplayExtraWarnings for further guidance.\n   ** Warning ** Sizing: Coil:Heating:DX:SingleSpeed PTHP 1 SPD DX HTG COIL 19: Rated air volume flow rate per watt of rated total heating capacity is out of range.\n   **   ~~~   ** Min Rated Vol Flow Per Watt=[4.027E-005], Rated Vol Flow Per Watt=[18982014149879860.000], Max Rated Vol Flow Per Watt=[6.041E-005]. See Input-Output Reference Manual for valid range.\n   ** Warning ** Coil:Heating:DX:SingleSpeed \"PTHP 1 SPD DX HTG COIL 19\" - Air volume flow rate per watt of rated total heating capacity is out of range at 18899457508866216. m3/s/W.\n   **   ~~~   **  During Warmup, Environment=MONTREAL INT'L ANN CLG .4% CONDNS DB=>MWB, at Simulation time=07/21 00:00 - 00:10\n   **   ~~~   ** Expected range for VolumeFlowPerRatedTotalCapacity=[2.684E-005--8.056E-005]\n   **   ~~~   ** Possible causes include inconsistent air flow rates in system components or\n   **   ~~~   ** inconsistent supply air fan operation modes in coil and unitary system objects.\n   ** Warning ** The Standard Ratings is calculated for Coil:Heating:DX:SingleSpeed = PTHP 1 SPD DX HTG COIL 10 but not at the AHRI test condition due to curve out of bound.\n   **   ~~~   **  Review the Standard Ratings calculations in the Engineering Reference for this coil type. Also, use Output:Diagnostics, DisplayExtraWarnings for further guidance.\n   ** Warning ** Sizing: Coil:Heating:DX:SingleSpeed PTHP 1 SPD DX HTG COIL 10: Rated air volume flow rate per watt of rated total heating capacity is out of range.\n   **   ~~~   ** Min Rated Vol Flow Per Watt=[4.027E-005], Rated Vol Flow Per Watt=[32653641666919068.000], Max Rated Vol Flow Per Watt=[6.041E-005]. See Input-Output Reference Manual for valid range.\n   ** Warning ** Coil:Heating:DX:SingleSpeed \"PTHP 1 SPD DX HTG COIL 10\" - Air volume flow rate per watt of rated total heating capacity is out of range at 32511624336640076. m3/s/W.\n   **   ~~~   **  During Warmup, Environment=MONTREAL INT'L ANN CLG .4% CONDNS DB=>MWB, at Simulation time=07/21 00:00 - 00:10\n   **   ~~~   ** Expected range for VolumeFlowPerRatedTotalCapacity=[2.684E-005--8.056E-005]\n   **   ~~~   ** Possible causes include inconsistent air flow rates in system components or\n   **   ~~~   ** inconsistent supply air fan operation modes in coil and unitary system objects.\n   ** Warning ** The Standard Ratings is calculated for Coil:Heating:DX:SingleSpeed = PTHP 1 SPD DX HTG COIL 5 but not at the AHRI test condition due to curve out of bound.\n   **   ~~~   **  Review the Standard Ratings calculations in the Engineering Reference for this coil type. Also, use Output:Diagnostics, DisplayExtraWarnings for further guidance.\n   ** Warning ** Sizing: Coil:Heating:DX:SingleSpeed PTHP 1 SPD DX HTG COIL 5: Rated air volume flow rate per watt of rated total heating capacity is out of range.\n   **   ~~~   ** Min Rated Vol Flow Per Watt=[4.027E-005], Rated Vol Flow Per Watt=[3707106705374411.000], Max Rated Vol Flow Per Watt=[6.041E-005]. See Input-Output Reference Manual for valid range.\n   ** Warning ** Coil:Heating:DX:SingleSpeed \"PTHP 1 SPD DX HTG COIL 5\" - Air volume flow rate per watt of rated total heating capacity is out of range at 3690983744182918. m3/s/W.\n   **   ~~~   **  During Warmup, Environment=MONTREAL INT'L ANN CLG .4% CONDNS DB=>MWB, at Simulation time=07/21 00:00 - 00:10\n   **   ~~~   ** Expected range for VolumeFlowPerRatedTotalCapacity=[2.684E-005--8.056E-005]\n   **   ~~~   ** Possible causes include inconsistent air flow rates in system components or\n   **   ~~~   ** inconsistent supply air fan operation modes in coil and unitary system objects.\n   ** Warning ** The Standard Ratings is calculated for Coil:Heating:DX:SingleSpeed = PTHP 1 SPD DX HTG COIL 12 but not at the AHRI test condition due to curve out of bound.\n   **   ~~~   **  Review the Standard Ratings calculations in the Engineering Reference for this coil type. Also, use Output:Diagnostics, DisplayExtraWarnings for further guidance.\n   ** Warning ** Sizing: Coil:Heating:DX:SingleSpeed PTHP 1 SPD DX HTG COIL 12: Rated air volume flow rate per watt of rated total heating capacity is out of range.\n   **   ~~~   ** Min Rated Vol Flow Per Watt=[4.027E-005], Rated Vol Flow Per Watt=[2982979758014345.000], Max Rated Vol Flow Per Watt=[6.041E-005]. See Input-Output Reference Manual for valid range.\n   ** Warning ** Coil:Heating:DX:SingleSpeed \"PTHP 1 SPD DX HTG COIL 12\" - Air volume flow rate per watt of rated total heating capacity is out of range at 2970006172224720. m3/s/W.\n   **   ~~~   **  During Warmup, Environment=MONTREAL INT'L ANN CLG .4% CONDNS DB=>MWB, at Simulation time=07/21 00:00 - 00:10\n   **   ~~~   ** Expected range for VolumeFlowPerRatedTotalCapacity=[2.684E-005--8.056E-005]\n   **   ~~~   ** Possible causes include inconsistent air flow rates in system components or\n   **   ~~~   ** inconsistent supply air fan operation modes in coil and unitary system objects.\n   ** Warning ** The Standard Ratings is calculated for Coil:Heating:DX:SingleSpeed = PTHP 1 SPD DX HTG COIL 18 but not at the AHRI test condition due to curve out of bound.\n   **   ~~~   **  Review the Standard Ratings calculations in the Engineering Reference for this coil type. Also, use Output:Diagnostics, DisplayExtraWarnings for further guidance.\n   ** Warning ** Sizing: Coil:Heating:DX:SingleSpeed PTHP 1 SPD DX HTG COIL 18: Rated air volume flow rate per watt of rated total heating capacity is out of range.\n   **   ~~~   ** Min Rated Vol Flow Per Watt=[4.027E-005], Rated Vol Flow Per Watt=[3051658615018210.000], Max Rated Vol Flow Per Watt=[6.041E-005]. See Input-Output Reference Manual for valid range.\n   ** Warning ** Coil:Heating:DX:SingleSpeed \"PTHP 1 SPD DX HTG COIL 18\" - Air volume flow rate per watt of rated total heating capacity is out of range at 3038386330908262. m3/s/W.\n   **   ~~~   **  During Warmup, Environment=MONTREAL INT'L ANN CLG .4% CONDNS DB=>MWB, at Simulation time=07/21 00:00 - 00:10\n   **   ~~~   ** Expected range for VolumeFlowPerRatedTotalCapacity=[2.684E-005--8.056E-005]\n   **   ~~~   ** Possible causes include inconsistent air flow rates in system components or\n   **   ~~~   ** inconsistent supply air fan operation modes in coil and unitary system objects.\n   ** Warning ** The Standard Ratings is calculated for Coil:Heating:DX:SingleSpeed = PTHP 1 SPD DX HTG COIL 4 but not at the AHRI test condition due to curve out of bound.\n   **   ~~~   **  Review the Standard Ratings calculations in the Engineering Reference for this coil type. Also, use Output:Diagnostics, DisplayExtraWarnings for further guidance.\n   ** Warning ** Sizing: Coil:Heating:DX:SingleSpeed PTHP 1 SPD DX HTG COIL 4: Rated air volume flow rate per watt of rated total heating capacity is out of range.\n   **   ~~~   ** Min Rated Vol Flow Per Watt=[4.027E-005], Rated Vol Flow Per Watt=[5852154483724839.000], Max Rated Vol Flow Per Watt=[6.041E-005]. See Input-Output Reference Manual for valid range.\n   ** Warning ** Coil:Heating:DX:SingleSpeed \"PTHP 1 SPD DX HTG COIL 4\" - Air volume flow rate per watt of rated total heating capacity is out of range at 5826702273382224. m3/s/W.\n   **   ~~~   **  During Warmup, Environment=MONTREAL INT'L ANN CLG .4% CONDNS DB=>MWB, at Simulation time=07/21 00:00 - 00:10\n   **   ~~~   ** Expected range for VolumeFlowPerRatedTotalCapacity=[2.684E-005--8.056E-005]\n   **   ~~~   ** Possible causes include inconsistent air flow rates in system components or\n   **   ~~~   ** inconsistent supply air fan operation modes in coil and unitary system objects.\n   ** Warning ** The Standard Ratings is calculated for Coil:Heating:DX:SingleSpeed = PTHP 1 SPD DX HTG COIL 17 but not at the AHRI test condition due to curve out of bound.\n   **   ~~~   **  Review the Standard Ratings calculations in the Engineering Reference for this coil type. Also, use Output:Diagnostics, DisplayExtraWarnings for further guidance.\n   ** Warning ** Sizing: Coil:Heating:DX:SingleSpeed PTHP 1 SPD DX HTG COIL 17: Rated air volume flow rate per watt of rated total heating capacity is out of range.\n   **   ~~~   ** Min Rated Vol Flow Per Watt=[4.027E-005], Rated Vol Flow Per Watt=[2979029268489594.500], Max Rated Vol Flow Per Watt=[6.041E-005]. See Input-Output Reference Manual for valid range.\n   ** Warning ** Coil:Heating:DX:SingleSpeed \"PTHP 1 SPD DX HTG COIL 17\" - Air volume flow rate per watt of rated total heating capacity is out of range at 2966072864182553. m3/s/W.\n   **   ~~~   **  During Warmup, Environment=MONTREAL INT'L ANN CLG .4% CONDNS DB=>MWB, at Simulation time=07/21 00:00 - 00:10\n   **   ~~~   ** Expected range for VolumeFlowPerRatedTotalCapacity=[2.684E-005--8.056E-005]\n   **   ~~~   ** Possible causes include inconsistent air flow rates in system components or\n   **   ~~~   ** inconsistent supply air fan operation modes in coil and unitary system objects.\n   ** Warning ** The Standard Ratings is calculated for Coil:Heating:DX:SingleSpeed = PTHP 1 SPD DX HTG COIL 16 but not at the AHRI test condition due to curve out of bound.\n   **   ~~~   **  Review the Standard Ratings calculations in the Engineering Reference for this coil type. Also, use Output:Diagnostics, DisplayExtraWarnings for further guidance.\n   ** Warning ** Sizing: Coil:Heating:DX:SingleSpeed PTHP 1 SPD DX HTG COIL 16: Rated air volume flow rate per watt of rated total heating capacity is out of range.\n   **   ~~~   ** Min Rated Vol Flow Per Watt=[4.027E-005], Rated Vol Flow Per Watt=[3050997130961875.500], Max Rated Vol Flow Per Watt=[6.041E-005]. See Input-Output Reference Manual for valid range.\n   ** Warning ** Coil:Heating:DX:SingleSpeed \"PTHP 1 SPD DX HTG COIL 16\" - Air volume flow rate per watt of rated total heating capacity is out of range at 3037727723780654. m3/s/W.\n   **   ~~~   **  During Warmup, Environment=MONTREAL INT'L ANN CLG .4% CONDNS DB=>MWB, at Simulation time=07/21 00:00 - 00:10\n   **   ~~~   ** Expected range for VolumeFlowPerRatedTotalCapacity=[2.684E-005--8.056E-005]\n   **   ~~~   ** Possible causes include inconsistent air flow rates in system components or\n   **   ~~~   ** inconsistent supply air fan operation modes in coil and unitary system objects.\n   ** Warning ** Water heater = 600 GAL WATER HEATER - 600 KBTU/HR:  Recovery Efficiency and Energy Factor could not be calculated during the test for standard ratings\n   **   ~~~   ** Setpoint was never recovered and/or heater never turned on\n   ** Warning ** Output:Meter: invalid Key Name=\"DISTRICTCOOLING:FACILITY\" - not found.\n   ** Warning ** Output:Meter: invalid Key Name=\"DISTRICTHEATING:FACILITY\" - not found.\n   ** Warning ** Output:Meter:MeterFileOnly requested for \"Electricity:Facility\" (TimeStep), already on \"Output:Meter\". Will report to both eplusout.eso and eplusout.mtr\n   ************* Testing Individual Branch Integrity\n   ************* All Branches passed integrity testing\n   ************* Testing Individual Supply Air Path Integrity\n   ************* All Supply Air Paths passed integrity testing\n   ************* Testing Individual Return Air Path Integrity\n   ************* All Return Air Paths passed integrity testing\n   ************* No node connection errors were found.\n   ************* Beginning Simulation\n   ** Warning ** CalcEquipmentFlowRates: \"ESTAR MFHR WHOLE BUILDING WATER USE EQUIPMENT\" - Target water temperature is greater than the hot water temperature by (2.03 C)\n   **   ~~~   **  Environment=MONTREAL INT'L ANN CLG .4% CONDNS DB=>MWB, at Simulation time=07/21 00:00 - 00:10\n   **   ~~~   ** ...target water temperature     = 60.00 C\n   **   ~~~   ** ...hot water temperature        = 57.97 C\n   **   ~~~   ** ...Target water temperature should be less than or equal to the hot water temperature. Verify temperature setpoints and schedules.\n   ** Warning ** Processing Monthly Tabular Reports: Variable names not valid for this simulation\n   **   ~~~   ** ...use Output:Diagnostics,DisplayExtraWarnings; to show more details on individual variables.\n   ** Warning ** The resource referenced by LifeCycleCost:UsePriceEscalation= \"U.S. AVG  COMMERCIAL-ELECTRICITY\" has no energy cost. \n   **   ~~~   ** ... It is likely that the wrong resource is used. The resource should match the meter used in Utility:Tariff.\n   ** Warning ** The resource referenced by LifeCycleCost:UsePriceEscalation= \"U.S. AVG  COMMERCIAL-DISTILLATE OIL\" has no energy cost. \n   **   ~~~   ** ... It is likely that the wrong resource is used. The resource should match the meter used in Utility:Tariff.\n   ** Warning ** The resource referenced by LifeCycleCost:UsePriceEscalation= \"U.S. AVG  COMMERCIAL-RESIDUAL OIL\" has no energy cost. \n   **   ~~~   ** ... It is likely that the wrong resource is used. The resource should match the meter used in Utility:Tariff.\n   ** Warning ** The resource referenced by LifeCycleCost:UsePriceEscalation= \"U.S. AVG  COMMERCIAL-NATURAL GAS\" has no energy cost. \n   **   ~~~   ** ... It is likely that the wrong resource is used. The resource should match the meter used in Utility:Tariff.\n   ** Warning ** The resource referenced by LifeCycleCost:UsePriceEscalation= \"U.S. AVG  COMMERCIAL-COAL\" has no energy cost. \n   **   ~~~   ** ... It is likely that the wrong resource is used. The resource should match the meter used in Utility:Tariff.\n   ************* Simulation Error Summary *************\n   ************* There are 36 unused schedules in input.\n   ************* There are 35 unused week schedules in input.\n   ************* There are 105 unused day schedules in input.\n   ************* Use Output:Diagnostics,DisplayUnusedSchedules; to see them.\n   *************\n   ************* ===== Recurring Error Summary =====\n   ************* The following recurring error messages occurred.\n   *************\n   *************  ** Warning ** Coil:Heating:DX:SingleSpeed \"PTHP 1 SPD DX HTG COIL\" - Air volume flow rate per watt of rated total heating capacity is out of range error continues...\n   *************  **   ~~~   **   This error occurred 576 total times;\n   *************  **   ~~~   **   during Warmup 16 times;\n   *************  **   ~~~   **   during Sizing 0 times.\n   *************  **   ~~~   **   Max=19376547047163076.000000  Min=0.967352\n   *************\n   *************  ** Warning ** Coil:Heating:DX:SingleSpeed \"PTHP 1 SPD DX HTG COIL 6\" - Air volume flow rate per watt of rated total heating capacity is out of range error continues...\n   *************  **   ~~~   **   This error occurred 226 total times;\n   *************  **   ~~~   **   during Warmup 31 times;\n   *************  **   ~~~   **   during Sizing 0 times.\n   *************  **   ~~~   **   Max=31726133474911020.000000  Min=433334544382948.250000\n   *************\n   *************  ** Warning ** Coil:Heating:DX:SingleSpeed \"PTHP 1 SPD DX HTG COIL 7\" - Air volume flow rate per watt of rated total heating capacity is out of range error continues...\n   *************  **   ~~~   **   This error occurred 1 total times;\n   *************  **   ~~~   **   during Warmup 1 times;\n   *************  **   ~~~   **   during Sizing 0 times.\n   *************  **   ~~~   **   Max=61009676556231152.000000  Min=61009676556231152.000000\n   *************\n   *************  ** Warning ** Coil:Heating:DX:SingleSpeed \"PTHP 1 SPD DX HTG COIL 11\" - Air volume flow rate per watt of rated total heating capacity is out of range error continues...\n   *************  **   ~~~   **   This error occurred 111 total times;\n   *************  **   ~~~   **   during Warmup 21 times;\n   *************  **   ~~~   **   during Sizing 0 times.\n   *************  **   ~~~   **   Max=5273085619421764.000000  Min=60106449259145.351562\n   *************\n   *************  ** Warning ** Coil:Heating:DX:SingleSpeed \"PTHP 1 SPD DX HTG COIL 9\" - Air volume flow rate per watt of rated total heating capacity is out of range error continues...\n   *************  **   ~~~   **   This error occurred 344 total times;\n   *************  **   ~~~   **   during Warmup 64 times;\n   *************  **   ~~~   **   during Sizing 0 times.\n   *************  **   ~~~   **   Max=39548184558135576.000000  Min=600927532732040.750000\n   *************\n   *************  ** Warning ** Coil:Heating:DX:SingleSpeed \"PTHP 1 SPD DX HTG COIL 3\" - Air volume flow rate per watt of rated total heating capacity is out of range error continues...\n   *************  **   ~~~   **   This error occurred 76 total times;\n   *************  **   ~~~   **   during Warmup 1 times;\n   *************  **   ~~~   **   during Sizing 0 times.\n   *************  **   ~~~   **   Max=4140875309329410.000000  Min=45508758581363.515625\n   *************\n   *************  ** Warning ** Coil:Heating:DX:SingleSpeed \"PTHP 1 SPD DX HTG COIL 13\" - Air volume flow rate per watt of rated total heating capacity is out of range error continues...\n   *************  **   ~~~   **   This error occurred 354 total times;\n   *************  **   ~~~   **   during Warmup 84 times;\n   *************  **   ~~~   **   during Sizing 0 times.\n   *************  **   ~~~   **   Max=39603347508095712.000000  Min=602114447223959.250000\n   *************\n   *************  ** Warning ** Coil:Heating:DX:SingleSpeed \"PTHP 1 SPD DX HTG COIL 14\" - Air volume flow rate per watt of rated total heating capacity is out of range error continues...\n   *************  **   ~~~   **   This error occurred 236 total times;\n   *************  **   ~~~   **   during Warmup 41 times;\n   *************  **   ~~~   **   during Sizing 0 times.\n   *************  **   ~~~   **   Max=32516423574711304.000000  Min=452440658385287.375000\n   *************\n   *************  ** Warning ** Coil:Heating:DX:SingleSpeed \"PTHP 1 SPD DX HTG COIL 15\" - Air volume flow rate per watt of rated total heating capacity is out of range error continues...\n   *************  **   ~~~   **   This error occurred 241 total times;\n   *************  **   ~~~   **   during Warmup 26 times;\n   *************  **   ~~~   **   during Sizing 0 times.\n   *************  **   ~~~   **   Max=31773524932201296.000000  Min=433925455125288.625000\n   *************\n   *************  ** Warning ** Coil:Heating:DX:SingleSpeed \"PTHP 1 SPD DX HTG COIL 1\" - Air volume flow rate per watt of rated total heating capacity is out of range error continues...\n   *************  **   ~~~   **   This error occurred 116 total times;\n   *************  **   ~~~   **   during Warmup 21 times;\n   *************  **   ~~~   **   during Sizing 0 times.\n   *************  **   ~~~   **   Max=5281052568127654.000000  Min=60225167759792.343750\n   *************\n   *************  ** Warning ** Coil:Heating:DX:SingleSpeed \"PTHP 1 SPD DX HTG COIL 2\" - Air volume flow rate per watt of rated total heating capacity is out of range error continues...\n   *************  **   ~~~   **   This error occurred 76 total times;\n   *************  **   ~~~   **   during Warmup 1 times;\n   *************  **   ~~~   **   during Sizing 0 times.\n   *************  **   ~~~   **   Max=4139382113212499.500000  Min=45449399331039.992188\n   *************\n   *************  ** Warning ** Coil:Heating:DX:SingleSpeed \"PTHP 1 SPD DX HTG COIL 8\" - Air volume flow rate per watt of rated total heating capacity is out of range error continues...\n   *************  **   ~~~   **   This error occurred 341 total times;\n   *************  **   ~~~   **   during Warmup 41 times;\n   *************  **   ~~~   **   during Sizing 0 times.\n   *************  **   ~~~   **   Max=3685801804764427.500000  Min=59834897438208.476562\n   *************\n   *************  ** Warning ** Coil:Heating:DX:SingleSpeed \"PTHP 1 SPD DX HTG COIL 22\" - Air volume flow rate per watt of rated total heating capacity is out of range error continues...\n   *************  **   ~~~   **   This error occurred 71 total times;\n   *************  **   ~~~   **   during Warmup 1 times;\n   *************  **   ~~~   **   during Sizing 0 times.\n   *************  **   ~~~   **   Max=4028453104684794.000000  Min=43589476154236.437500\n   *************\n   *************  ** Warning ** Coil:Heating:DX:SingleSpeed \"PTHP 1 SPD DX HTG COIL 20\" - Air volume flow rate per watt of rated total heating capacity is out of range error continues...\n   *************  **   ~~~   **   This error occurred 1 total times;\n   *************  **   ~~~   **   during Warmup 1 times;\n   *************  **   ~~~   **   during Sizing 0 times.\n   *************  **   ~~~   **   Max=6887033951962542.000000  Min=6887033951962542.000000\n   *************\n   *************  ** Warning ** Coil:Heating:DX:SingleSpeed \"PTHP 1 SPD DX HTG COIL 21\" - Air volume flow rate per watt of rated total heating capacity is out of range error continues...\n   *************  **   ~~~   **   This error occurred 71 total times;\n   *************  **   ~~~   **   during Warmup 1 times;\n   *************  **   ~~~   **   during Sizing 0 times.\n   *************  **   ~~~   **   Max=4023387531354743.000000  Min=43530116903912.921875\n   *************\n   *************  ** Warning ** Coil:Heating:DX:SingleSpeed \"PTHP 1 SPD DX HTG COIL 19\" - Air volume flow rate per watt of rated total heating capacity is out of range error continues...\n   *************  **   ~~~   **   This error occurred 676 total times;\n   *************  **   ~~~   **   during Warmup 11 times;\n   *************  **   ~~~   **   during Sizing 0 times.\n   *************  **   ~~~   **   Max=18899457508866216.000000  Min=0.965190\n   *************\n   *************  ** Warning ** Coil:Heating:DX:SingleSpeed \"PTHP 1 SPD DX HTG COIL 10\" - Air volume flow rate per watt of rated total heating capacity is out of range error continues...\n   *************  **   ~~~   **   This error occurred 261 total times;\n   *************  **   ~~~   **   during Warmup 41 times;\n   *************  **   ~~~   **   during Sizing 0 times.\n   *************  **   ~~~   **   Max=32511624336640076.000000  Min=453031569127627.750000\n   *************\n   *************  ** Warning ** Coil:Heating:DX:SingleSpeed \"PTHP 1 SPD DX HTG COIL 5\" - Air volume flow rate per watt of rated total heating capacity is out of range error continues...\n   *************  **   ~~~   **   This error occurred 311 total times;\n   *************  **   ~~~   **   during Warmup 36 times;\n   *************  **   ~~~   **   during Sizing 0 times.\n   *************  **   ~~~   **   Max=3690983744182918.500000  Min=60202610109009.062500\n   *************\n   *************  ** Warning ** Coil:Heating:DX:SingleSpeed \"PTHP 1 SPD DX HTG COIL 12\" - Air volume flow rate per watt of rated total heating capacity is out of range error continues...\n   *************  **   ~~~   **   This error occurred 196 total times;\n   *************  **   ~~~   **   during Warmup 21 times;\n   *************  **   ~~~   **   during Sizing 0 times.\n   *************  **   ~~~   **   Max=2970006172224719.500000  Min=43573149488533.562500\n   *************\n   *************  ** Warning ** Coil:Heating:DX:SingleSpeed \"PTHP 1 SPD DX HTG COIL 18\" - Air volume flow rate per watt of rated total heating capacity is out of range error continues...\n   *************  **   ~~~   **   This error occurred 211 total times;\n   *************  **   ~~~   **   during Warmup 26 times;\n   *************  **   ~~~   **   during Sizing 0 times.\n   *************  **   ~~~   **   Max=3038386330908262.500000  Min=45449399331039.992188\n   *************\n   *************  ** Warning ** Coil:Heating:DX:SingleSpeed \"PTHP 1 SPD DX HTG COIL 4\" - Air volume flow rate per watt of rated total heating capacity is out of range error continues...\n   *************  **   ~~~   **   This error occurred 1 total times;\n   *************  **   ~~~   **   during Warmup 1 times;\n   *************  **   ~~~   **   during Sizing 0 times.\n   *************  **   ~~~   **   Max=5826702273382224.000000  Min=5826702273382224.000000\n   *************\n   *************  ** Warning ** Coil:Heating:DX:SingleSpeed \"PTHP 1 SPD DX HTG COIL 17\" - Air volume flow rate per watt of rated total heating capacity is out of range error continues...\n   *************  **   ~~~   **   This error occurred 221 total times;\n   *************  **   ~~~   **   during Warmup 36 times;\n   *************  **   ~~~   **   during Sizing 0 times.\n   *************  **   ~~~   **   Max=2966072864182553.000000  Min=43513812471526.937500\n   *************\n   *************  ** Warning ** Coil:Heating:DX:SingleSpeed \"PTHP 1 SPD DX HTG COIL 16\" - Air volume flow rate per watt of rated total heating capacity is out of range error continues...\n   *************  **   ~~~   **   This error occurred 231 total times;\n   *************  **   ~~~   **   during Warmup 26 times;\n   *************  **   ~~~   **   during Sizing 0 times.\n   *************  **   ~~~   **   Max=3037727723780653.500000  Min=45491713038414.531250\n   *************\n   *************  ** Warning ** \"ESTAR MFHR WHOLE BUILDING WATER USE EQUIPMENT\" - Target water temperature should be less than or equal to the hot water temperature error continues...\n   *************  **   ~~~   **   This error occurred 503159 total times;\n   *************  **   ~~~   **   during Warmup 0 times;\n   *************  **   ~~~   **   during Sizing 0 times.\n   *************  **   ~~~   **   Max=4.989458  Min=0.075405\n   *************\n   *************\n   ************* ===== Final Error Summary =====\n   ************* The following error categories occurred.  Consider correcting or noting.\n   ************* Nominally Unused Constructions\n   ************* ..The nominally unused constructions warning is provided to alert you to potential conditions that can cause\n   ************* ..extra time during simulation. Each construction is calculated by the algorithm indicated in the HeatBalanceAlgorithm\n   ************* ..object. You may remove the constructions indicated (when you use the DisplayExtraWarnings option).\n   *************\n   ************* EnergyPlus Warmup Error Summary. During Warmup: 0 Warning; 0 Severe Errors.\n   ************* EnergyPlus Sizing Error Summary. During Sizing: 59 Warning; 0 Severe Errors.\n   ************* EnergyPlus Completed Successfully-- 508224 Warning; 0 Severe Errors; Elapsed Time=00hr 01min 16.01sec\n\u0000\u0000\u0000\u0000\u0000\u0000\u0000\u0000\u0000\u0000\u0000\u0000\u0000\u0000\u0000\u0000\u0000\u0000\u0000\u0000\u0000\u0000\u0000\u0000\u0000\u0000\u0000\u0000\u0000\u0000\u0000\u0000\u0000\u0000\u0000\u0000\u0000\u0000\u0000\u0000\u0000\u0000\u0000\u0000\u0000\u0000\u0000\u0000\u0000\u0000\u0000\u0000\u0000\u0000\u0000\u0000\u0000\u0000\u0000\u0000\u0000\u0000\u0000\u0000\u0000\u0000\u0000\u0000\u0000\u0000\u0000\u0000\u0000\u0000\u0000\u0000\u0000\u0000\u0000\u0000\u0000\u0000\u0000\u0000\u0000\u0000\u0000\u0000\u0000\u0000\u0000\u0000\u0000\u0000\u0000\u0000\u0000\u0000\u0000\u0000\u0000\u0000\u0000\u0000\u0000\u0000\u0000\u0000\u0000\u0000\u0000\u0000\u0000\u0000\u0000\u0000\u0000\u0000\u0000\u0000\u0000\u0000\u0000\u0000\u0000\u0000\u0000\u0000\u0000\u0000\u0000\u0000\u0000\u0000\u0000\u0000\u0000\u0000\u0000\u0000\u0000\u0000\u0000\u0000\u0000\u0000\u0000\u0000\u0000\u0000\u0000\u0000\u0000\u0000\u0000\u0000\u0000\u0000\u0000\u0000\u0000\u0000\u0000\u0000\u0000\u0000\u0000\u0000\u0000\u0000\u0000\u0000\u0000\u0000\u0000\u0000\u0000\u0000\u0000\u0000\u0000\u0000\u0000\u0000\u0000\u0000\u0000\u0000\u0000\u0000\u0000\u0000\u0000\u0000\u0000\u0000\u0000\u0000\u0000\u0000\u0000\u0000\u0000\u0000\u0000\u0000\u0000\u0000\u0000\u0000\u0000\u0000\u0000\u0000\u0000\u0000\u0000\u0000\u0000\u0000\u0000\u0000\u0000\u0000\u0000\u0000\u0000\u0000\u0000\u0000\u0000\u0000\u0000\u0000\u0000\u0000\u0000\u0000\u0000\u0000\u0000\u0000\u0000\u0000\u0000\u0000\u0000\u0000\u0000\u0000\u0000\u0000\u0000\u0000\u0000\u0000\u0000\u0000\u0000\u0000\u0000\u0000\u0000\u0000\u0000\u0000\u0000\u0000\u0000\u0000\u0000\u0000\u0000\u0000\u0000\u0000\u0000\u0000\u0000\u0000\u0000\u0000\u0000\u0000\u0000\u0000\u0000\u0000\u0000\u0000\u0000\u0000\u0000\u0000\u0000\u0000\u0000\u0000\u0000\u0000\u0000\u0000\u0000\u0000\u0000\u0000\u0000\u0000\u0000\u0000\u0000\u0000\u0000\u0000\u0000\u0000\u0000\u0000\u0000\u0000\u0000\u0000\u0000\u0000\u0000\u0000\u0000\u0000\u0000\u0000\u0000\u0000\u0000\u0000\u0000\u0000\u0000\u0000\u0000\u0000\u0000\u0000\u0000\u0000\u0000\u0000\u0000\u0000\u0000\u0000\u0000\u0000\u0000\u0000\u0000\u0000\u0000\u0000\u0000\u0000\u0000\u0000\u0000\u0000\u0000\u0000\u0000\u0000\u0000\u0000\u0000\u0000\u0000\u0000\u0000\u0000\u0000\u0000\u0000\u0000\u0000\u0000\u0000\u0000\u0000\u0000\u0000\u0000\u0000\u0000\u0000\u0000\u0000\u0000\u0000\u0000\u0000\u0000\u0000\u0000\u0000\u0000\u0000\u0000\u0000\u0000\u0000\u0000\u0000\u0000\u0000\u0000\u0000\u0000\u0000\u0000\u0000\u0000\u0000\u0000\u0000\u0000\u0000\u0000\u0000\u0000\u0000\u0000\u0000\u0000\u0000\u0000\u0000\u0000\u0000\u0000\u0000\u0000\u0000\u0000\u0000\u0000\u0000\u0000\u0000\u0000\u0000\u0000\u0000\u0000\u0000\u0000\u0000\u0000\u0000\u0000\u0000\u0000\u0000\u0000\u0000\u0000\u0000\u0000\u0000\u0000\u0000\u0000\u0000\u0000\u0000\u0000\u0000\u0000\u0000\u0000\u0000\u0000\u0000\u0000\u0000\u0000\u0000\u0000\u0000\u0000\u0000\u0000\u0000\u0000\u0000\u0000\u0000\u0000\u0000\u0000\u0000\u0000\u0000\u0000\u0000\u0000\u0000\u0000\u0000\u0000\u0000\u0000\u0000\u0000\u0000\u0000\u0000\u0000\u0000\u0000\u0000\u0000\u0000\u0000\u0000\u0000\u0000\u0000\u0000\u0000\u0000\u0000\u0000\u0000\u0000\u0000\u0000\u0000\u0000\u0000\u0000\u0000\u0000\u0000\u0000\u0000\u0000\u0000\u0000\u0000\u0000\u0000\u0000\u0000\u0000\u0000\u0000\u0000\u0000\u0000\u0000\u0000",
   "file_paths" : 
   [
      "C:/Users/ORIOL~1.GAV/AppData/Local/Temp/osmodel-4272-b341-ed33-573c-1721209443-0/resources/generated_files",
      "./files",
      "./weather",
      "../../files",
      "../../weather",
      "./"
   ],
   "hash" : "CABDC918",
   "run_options" : null,
   "seed_file" : "../4_MURB_HR_Pre1950_65ReneLevesque.osm",
   "started_at" : "20240717T104515Z",
   "steps" : 
   [
      {
         "arguments" : {},
         "description" : "This will assign an existing construction set to the building object. This will impact surfaces that don't have construction sets already assigned at story, space type, space, or surfaces with hard assigned constructions.",
         "measure_dir_name" : "AssignConstructionSetToBuilding",
         "modeler_description" : "What this is classified as opaque, it also affects fenestration.",
         "name" : "AssignConstructionSetToBuilding",
         "result" : 
         {
            "completed_at" : "20240717T104516Z",
            "measure_class_name" : "AssignConstructionSetToBuilding",
            "measure_display_name" : "AssignConstructionSetToBuilding",
            "measure_name" : "assign_construction_set_to_building",
            "measure_taxonomy" : "Envelope.Opaque",
            "measure_type" : "ModelMeasure",
            "measure_uid" : "6e68ddea-2cff-47a3-9daf-f2189e4cf132",
            "measure_version_id" : "fd2962a8-3b12-4c3e-94ae-6c0451dfb242",
            "measure_version_modified" : "20230602T160037Z",
            "measure_xml_checksum" : "1E963D9C",
            "started_at" : "20240717T104516Z",
            "stderr" : "",
            "stdout" : "[openstudio.measure.OSRunner] <Info> The initial model doesn't have a default construction set for the building.\n[openstudio.measure.OSRunner] <Info> The final model doesn't have a default construction set for the building.\n",
            "step_errors" : [],
            "step_files" : [],
            "step_final_condition" : "The final model doesn't have a default construction set for the building.",
            "step_info" : [],
            "step_initial_condition" : "The initial model doesn't have a default construction set for the building.",
            "step_result" : "Success",
            "step_values" : 
            [
               {
                  "name" : "construction_set",
                  "value" : "{e0ce3521-4e53-4eca-8017-2f1c8dec2b50}"
               }
            ],
            "step_warnings" : []
         }
      },
      {
         "arguments" : 
         {
            "facade" : "All",
            "wwr" : 0.29999999999999999
         },
         "description" : "This measure will set the window to wall ratio for exterior surfaces with a specified orientation. If one or more windows exist on an affected wall, they will be removed and replaced with a single ribbon window. Doors will not be removed. If the requested ratio can?t be achieved then the wall will remain un-touched.",
         "measure_dir_name" : "SetWindowToWallRatioByFacade",
         "modeler_description" : "This measure identifies exterior surfaces of the proper orientation. Then it runs a method that removes existing windows and applies a new window with a specified window to wall ratio and sill height. The construction chosen for the new window is defaulted to what is assigned to the space, or inherited from a higher level object, such as the building. If the baseline model uses hard assigned constructions you may not get the expected results.\n\n\n\n\n\n\n\n\n\n\n\nThe measure doesn?t have any cost or lifecycle arguments, however If lifecycle objects exist for exterior wall and window constructions, then this measure will be able to calculate the economic impact of change in window to wall ratio.\n\n\n\n\n\n  ",
         "name" : "Set Window to Wall Ratio by Facade",
         "result" : 
         {
            "completed_at" : "20240717T104516Z",
            "measure_class_name" : "SetWindowToWallRatioByFacade",
            "measure_display_name" : "Set Window to Wall Ratio by Facade",
            "measure_name" : "set_window_to_wall_ratio_by_facade",
            "measure_taxonomy" : "Envelope.Fenestration",
            "measure_type" : "ModelMeasure",
            "measure_uid" : "c567a0bf-a7d9-4a06-afe9-bf7df79e6bf8",
            "measure_version_id" : "f92b9832-7215-4264-a35c-244e30665282",
            "measure_version_modified" : "20230602T160042Z",
            "measure_xml_checksum" : "6DE831F7",
            "started_at" : "20240717T104516Z",
            "stderr" : "",
            "stdout" : "[openstudio.measure.OSRunner] <Info> Space Space 108 in thermal zone Thermal Zone 3 has a zone multiplier of 10. Adjusting area calculations.\n[openstudio.measure.OSRunner] <Info> Space Space 109 in thermal zone Thermal Zone 10 has a zone multiplier of 10. Adjusting area calculations.\n[openstudio.measure.OSRunner] <Info> Space Space 110 in thermal zone Thermal Zone 11 has a zone multiplier of 10. Adjusting area calculations.\n[openstudio.measure.OSRunner] <Info> Space Space 111 in thermal zone Thermal Zone 13 has a zone multiplier of 10. Adjusting area calculations.\n[openstudio.measure.OSRunner] <Info> Space Space 112 in thermal zone Thermal Zone 15 has a zone multiplier of 10. Adjusting area calculations.\n[openstudio.measure.OSRunner] <Info> Space Space 113 in thermal zone Thermal Zone 16 has a zone multiplier of 10. Adjusting area calculations.\n[openstudio.measure.OSRunner] <Info> Space Space 114 in thermal zone Thermal Zone 17 has a zone multiplier of 10. Adjusting area calculations.\n[openstudio.measure.OSRunner] <Info> The model's initial window to wall ratio for All facing exterior walls was 0.30.\n[openstudio.measure.OSRunner] <Info> The model's final window to wall ratio for All facing exterior walls is 0.30. Window area increased by 0 (ft^2). The material and construction costs increased by $0.\n",
            "step_errors" : [],
            "step_files" : [],
            "step_final_condition" : "The model's final window to wall ratio for All facing exterior walls is 0.30. Window area increased by 0 (ft^2). The material and construction costs increased by $0.",
            "step_info" : 
            [
               "Space Space 108 in thermal zone Thermal Zone 3 has a zone multiplier of 10. Adjusting area calculations.",
               "Space Space 109 in thermal zone Thermal Zone 10 has a zone multiplier of 10. Adjusting area calculations.",
               "Space Space 110 in thermal zone Thermal Zone 11 has a zone multiplier of 10. Adjusting area calculations.",
               "Space Space 111 in thermal zone Thermal Zone 13 has a zone multiplier of 10. Adjusting area calculations.",
               "Space Space 112 in thermal zone Thermal Zone 15 has a zone multiplier of 10. Adjusting area calculations.",
               "Space Space 113 in thermal zone Thermal Zone 16 has a zone multiplier of 10. Adjusting area calculations.",
               "Space Space 114 in thermal zone Thermal Zone 17 has a zone multiplier of 10. Adjusting area calculations."
            ],
            "step_initial_condition" : "The model's initial window to wall ratio for All facing exterior walls was 0.30.",
            "step_result" : "Success",
            "step_values" : 
            [
               {
                  "name" : "wwr",
                  "value" : 0.29999999999999999
               },
               {
                  "name" : "sillHeight",
                  "value" : 30.0
               },
               {
                  "name" : "facade",
                  "value" : "All"
               },
               {
                  "name" : "exl_spaces_not_incl_fl_area",
                  "value" : true
               },
               {
                  "name" : "split_at_doors",
                  "value" : "Split Walls at Doors"
               },
               {
                  "name" : "inset_tri_sub",
                  "value" : true
               },
               {
                  "name" : "triangulate",
                  "value" : true
               },
               {
                  "name" : "triangulation_min_area",
                  "value" : 0.001
               }
            ],
            "step_warnings" : []
         }
      },
      {
         "arguments" : 
         {
            "option" : "poor (BETBG)"
         },
         "description" : "Derates opaque constructions from major thermal bridges.",
         "measure_dir_name" : "TBDMeasure",
         "modeler_description" : "Check out rd2.github.io/tbd",
         "name" : "Thermal Bridging and Derating - TBD",
         "result" : 
         {
            "completed_at" : "20240717T104518Z",
            "measure_class_name" : "TBDMeasure",
            "measure_display_name" : "Thermal Bridging and Derating - TBD",
            "measure_name" : "tbd_measure",
            "measure_taxonomy" : "Envelope.Opaque",
            "measure_type" : "ModelMeasure",
            "measure_uid" : "8890787b-8c25-4dc8-8641-b6be1b6c2357",
            "measure_version_id" : "986cb0f0-5502-454d-b49b-67e2bfe44574",
            "measure_version_modified" : "20240717T100842Z",
            "measure_xml_checksum" : "99772807",
            "started_at" : "20240717T104516Z",
            "stderr" : "",
[...]
                  "name" : "generic_exterior_wall_uninsulated",
                  "units" : "m^2",
                  "value" : 455.09721308529942
               },
               {
                  "name" : "surface_100_c_tbd",
                  "units" : "m^2",
                  "value" : 21.400008000000042
               },
               {
                  "name" : "surface_101_c_tbd",
                  "units" : "m^2",
                  "value" : 37.402007999999952
               },
               {
                  "name" : "surface_102_c_tbd",
                  "units" : "m^2",
                  "value" : 21.33600000000002
               },
               {
                  "name" : "surface_103_c_tbd",
                  "units" : "m^2",
                  "value" : 8.5344000000000069
               },
               {
                  "name" : "surface_104_c_tbd",
                  "units" : "m^2",
                  "value" : 4.2671999999999946
               },
               {
                  "name" : "surface_105_c_tbd",
                  "units" : "m^2",
                  "value" : 24.600491271324881
               },
               {
                  "name" : "surface_106_c_tbd",
                  "units" : "m^2",
                  "value" : 175.47294999999991
               },
               {
                  "name" : "surface_108_c_tbd",
                  "units" : "m^2",
                  "value" : 24.472391999999981
               },
               {
                  "name" : "surface_109_c_tbd",
                  "units" : "m^2",
                  "value" : 24.600491271324881
               },
               {
                  "name" : "surface_110_c_tbd",
                  "units" : "m^2",
                  "value" : 24.536399999999993
               },
               {
                  "name" : "surface_111_c_tbd",
                  "units" : "m^2",
                  "value" : 24.600407999999998
               },
               {
                  "name" : "surface_112_c_tbd",
                  "units" : "m^2",
                  "value" : 132.42205000000001
               },
               {
                  "name" : "surface_114_c_tbd",
                  "units" : "m^2",
                  "value" : 23.469599999999971
               },
               {
                  "name" : "surface_115_c_tbd",
                  "units" : "m^2",
                  "value" : 24.600491271324881
               },
               {
                  "name" : "surface_116_c_tbd",
                  "units" : "m^2",
                  "value" : 23.533608000000001
               },
               {
                  "name" : "surface_117_c_tbd",
                  "units" : "m^2",
                  "value" : 24.600407999999998
               },
               {
                  "name" : "surface_118_c_tbd",
                  "units" : "m^2",
                  "value" : 127.00295
               },
               {
                  "name" : "surface_12_c_tbd",
                  "units" : "m^2",
                  "value" : 23.533608000000001
               },
               {
                  "name" : "surface_120_c_tbd",
                  "units" : "m^2",
                  "value" : 24.536399999999993
               },
               {
                  "name" : "surface_121_c_tbd",
                  "units" : "m^2",
                  "value" : 24.600408000000002
               },
               {
                  "name" : "surface_122_c_tbd",
                  "units" : "m^2",
                  "value" : 24.536399999999993
               },
               {
                  "name" : "surface_123_c_tbd",
                  "units" : "m^2",
                  "value" : 24.600407999999998
               },
               {
                  "name" : "surface_124_c_tbd",
                  "units" : "m^2",
                  "value" : 132.595
               },
               {
                  "name" : "surface_126_c_tbd",
                  "units" : "m^2",
                  "value" : 96.012000000000114
               },
               {
                  "name" : "surface_127_c_tbd",
                  "units" : "m^2",
                  "value" : 4.2671999999999937
               },
               {
                  "name" : "surface_128_c_tbd",
                  "units" : "m^2",
                  "value" : 23.469599999999964
               },
               {
                  "name" : "surface_129_c_tbd",
                  "units" : "m^2",
                  "value" : 23.469599999999968
               },
               {
                  "name" : "surface_130_c_tbd",
                  "units" : "m^2",
                  "value" : 24.536399999999993
               },
               {
                  "name" : "surface_131_c_tbd",
                  "units" : "m^2",
                  "value" : 24.536399999999993
               },
               {
                  "name" : "surface_132_c_tbd",
                  "units" : "m^2",
                  "value" : 4.2671999999999946
               },
               {
                  "name" : "surface_133_c_tbd",
                  "units" : "m^2",
                  "value" : 90.0
               },
               {
                  "name" : "surface_135_c_tbd",
                  "units" : "m^2",
                  "value" : 23.469599999999971
               },
               {
                  "name" : "surface_136_c_tbd",
                  "units" : "m^2",
                  "value" : 24.600408000000002
               },
               {
                  "name" : "surface_137_c_tbd",
                  "units" : "m^2",
                  "value" : 23.469599999999968
               },
               {
                  "name" : "surface_138_c_tbd",
                  "units" : "m^2",
                  "value" : 24.600407999999998
               },
               {
                  "name" : "surface_139_c_tbd",
                  "units" : "m^2",
                  "value" : 126.83
               },
               {
                  "name" : "surface_141_c_tbd",
                  "units" : "m^2",
                  "value" : 4.2671999999999937
               },
               {
                  "name" : "surface_142_c_tbd",
                  "units" : "m^2",
                  "value" : 8.5344000000000015
               },
               {
                  "name" : "surface_143_c_tbd",
                  "units" : "m^2",
                  "value" : 21.336000000000034
               },
               {
                  "name" : "surface_144_c_tbd",
                  "units" : "m^2",
                  "value" : 37.40200799999996
               },
               {
                  "name" : "surface_145_c_tbd",
                  "units" : "m^2",
                  "value" : 21.271991999999948
               },
               {
                  "name" : "surface_146_c_tbd",
                  "units" : "m^2",
                  "value" : 24.600491271324881
               },
               {
                  "name" : "surface_147_c_tbd",
                  "units" : "m^2",
                  "value" : 175.12705
               },
               {
                  "name" : "surface_149_c_tbd",
                  "units" : "m^2",
                  "value" : 37.402007999999952
               },
               {
                  "name" : "surface_150_c_tbd",
                  "units" : "m^2",
                  "value" : 138.68399999999997
               },
               {
                  "name" : "surface_151_c_tbd",
                  "units" : "m^2",
                  "value" : 37.40200799999996
               },
               {
                  "name" : "surface_152_c_tbd",
                  "units" : "m^2",
                  "value" : 138.68399999999997
               },
               {
                  "name" : "surface_155_c_tbd",
                  "units" : "m^2",
                  "value" : 37.402007999999952
               },
               {
                  "name" : "surface_156_c_tbd",
                  "units" : "m^2",
                  "value" : 138.68399999999997
               },
               {
                  "name" : "surface_157_c_tbd",
                  "units" : "m^2",
                  "value" : 37.40200799999996
               },
               {
                  "name" : "surface_158_c_tbd",
                  "units" : "m^2",
                  "value" : 138.68399999999997
               },
               {
                  "name" : "surface_159_c_tbd",
                  "units" : "m^2",
                  "value" : 1139.45
               },
               {
                  "name" : "surface_16_c_tbd",
                  "units" : "m^2",
                  "value" : 96.012000000000114
               },
               {
                  "name" : "surface_27_c_tbd",
                  "units" : "m^2",
                  "value" : 23.469599999999968
               },
               {
                  "name" : "surface_3_c_tbd",
                  "units" : "m^2",
                  "value" : 8.5344000000000015
               },
               {
                  "name" : "surface_33_c_tbd",
                  "units" : "m^2",
                  "value" : 24.536399999999993
               },
               {
                  "name" : "surface_37_c_tbd",
                  "units" : "m^2",
                  "value" : 24.472391999999981
               },
               {
                  "name" : "surface_4_c_tbd",
                  "units" : "m^2",
                  "value" : 21.336000000000034
               },
               {
                  "name" : "surface_43_c_tbd",
                  "units" : "m^2",
                  "value" : 21.400008000000042
               },
               {
                  "name" : "surface_44_c_tbd",
                  "units" : "m^2",
                  "value" : 37.402007999999952
               },
               {
                  "name" : "surface_45_c_tbd",
                  "units" : "m^2",
                  "value" : 21.33600000000002
               },
               {
                  "name" : "surface_46_c_tbd",
                  "units" : "m^2",
                  "value" : 8.5344000000000069
               },
               {
                  "name" : "surface_5_c_tbd",
                  "units" : "m^2",
                  "value" : 37.40200799999996
               },
               {
                  "name" : "surface_51_c_tbd",
                  "units" : "m^2",
                  "value" : 245.36399999999992
               },
               {
                  "name" : "surface_52_c_tbd",
                  "units" : "m^2",
                  "value" : 246.00408000000002
               },
               {
                  "name" : "surface_53_c_tbd",
                  "units" : "m^2",
                  "value" : 245.36399999999992
               },
               {
                  "name" : "surface_54_c_tbd",
                  "units" : "m^2",
                  "value" : 246.00407999999999
               },
               {
                  "name" : "surface_57_c_tbd",
                  "units" : "m^2",
                  "value" : 234.69599999999971
               },
               {
                  "name" : "surface_58_c_tbd",
                  "units" : "m^2",
                  "value" : 246.00408000000002
               },
               {
                  "name" : "surface_59_c_tbd",
                  "units" : "m^2",
                  "value" : 234.69599999999969
               },
               {
                  "name" : "surface_6_c_tbd",
                  "units" : "m^2",
                  "value" : 21.271991999999948
               },
               {
                  "name" : "surface_60_c_tbd",
                  "units" : "m^2",
                  "value" : 246.00407999999999
               },
               {
                  "name" : "surface_63_c_tbd",
                  "units" : "m^2",
                  "value" : 960.12000000000114
               },
               {
                  "name" : "surface_64_c_tbd",
                  "units" : "m^2",
                  "value" : 42.67199999999994
               },
               {
                  "name" : "surface_65_c_tbd",
                  "units" : "m^2",
                  "value" : 234.69599999999963
               },
               {
                  "name" : "surface_66_c_tbd",
                  "units" : "m^2",
                  "value" : 234.69599999999969
               },
               {
                  "name" : "surface_67_c_tbd",
                  "units" : "m^2",
                  "value" : 245.36399999999992
               },
               {
                  "name" : "surface_68_c_tbd",
                  "units" : "m^2",
                  "value" : 245.36399999999992
               },
               {
                  "name" : "surface_69_c_tbd",
                  "units" : "m^2",
                  "value" : 42.671999999999947
               },
               {
                  "name" : "surface_72_c_tbd",
                  "units" : "m^2",
                  "value" : 42.67199999999994
               },
               {
                  "name" : "surface_73_c_tbd",
                  "units" : "m^2",
                  "value" : 85.344000000000023
               },
               {
                  "name" : "surface_74_c_tbd",
                  "units" : "m^2",
                  "value" : 213.36000000000035
               },
               {
                  "name" : "surface_75_c_tbd",
                  "units" : "m^2",
                  "value" : 374.02007999999961
               },
               {
                  "name" : "surface_76_c_tbd",
                  "units" : "m^2",
                  "value" : 212.71991999999949
               },
               {
                  "name" : "surface_77_c_tbd",
                  "units" : "m^2",
                  "value" : 246.00491271324881
               },
               {
                  "name" : "surface_80_c_tbd",
                  "units" : "m^2",
                  "value" : 214.00008000000042
               },
               {
                  "name" : "surface_81_c_tbd",
                  "units" : "m^2",
                  "value" : 374.02007999999955
               },
               {
                  "name" : "surface_82_c_tbd",
                  "units" : "m^2",
                  "value" : 213.36000000000018
               },
               {
                  "name" : "surface_83_c_tbd",
                  "units" : "m^2",
                  "value" : 85.344000000000065
               },
               {
                  "name" : "surface_84_c_tbd",
                  "units" : "m^2",
                  "value" : 42.671999999999947
               },
               {
                  "name" : "surface_85_c_tbd",
                  "units" : "m^2",
                  "value" : 246.00491271324881
               },
               {
                  "name" : "surface_88_c_tbd",
                  "units" : "m^2",
                  "value" : 244.72391999999982
               },
               {
                  "name" : "surface_89_c_tbd",
                  "units" : "m^2",
                  "value" : 246.00491271324881
               },
               {
                  "name" : "surface_90_c_tbd",
                  "units" : "m^2",
                  "value" : 245.36399999999992
               },
               {
                  "name" : "surface_91_c_tbd",
                  "units" : "m^2",
                  "value" : 246.00407999999999
               },
               {
                  "name" : "surface_94_c_tbd",
                  "units" : "m^2",
                  "value" : 234.69599999999971
               },
               {
                  "name" : "surface_95_c_tbd",
                  "units" : "m^2",
                  "value" : 246.00491271324881
               },
               {
                  "name" : "surface_96_c_tbd",
                  "units" : "m^2",
                  "value" : 235.33608000000001
               },
               {
                  "name" : "surface_97_c_tbd",
                  "units" : "m^2",
                  "value" : 246.00407999999999
               },
               {
                  "name" : "typical_iead_roof_pre_1980",
                  "units" : "m^2",
                  "value" : 1139.45
               },
               {
                  "name" : "customized_fenestration_u_3_36",
                  "units" : "m^2",
                  "value" : 4541.3144490101095
               },
               {
                  "name" : "gross_window_wall_ratio",
                  "units" : "%",
                  "value" : 30.0
               },
               {
                  "name" : "gross_window_wall_ratio_conditioned",
                  "units" : "%",
                  "value" : 30.0
               },
               {
                  "name" : "skylight_roof_ratio",
                  "units" : "%",
                  "value" : 0.0
               },
               {
                  "name" : "space_type_bureaux",
                  "units" : "m^2",
                  "value" : 2278.9000000000001
               },
               {
                  "name" : "space_type_murb_large",
                  "units" : "m^2",
                  "value" : 10433.4
               },
               {
                  "name" : "space_type_murb_lobby",
                  "units" : "m^2",
                  "value" : 1080.0
               },
               {
                  "name" : "estar_mfhr_whole_building_water_use_equipment",
                  "units" : "m^3/h",
                  "value" : 1.0799999999999998
               },
               {
                  "name" : "water_use_equipment_1",
                  "units" : "m^3/h",
                  "value" : 0.00035999999999999997
               },
               {
                  "name" : "zone_max_hours_over_70_rh",
                  "units" : "hr",
                  "value" : 42.0
               },
               {
                  "name" : "zone_max_hours_over_55_rh",
                  "units" : "hr",
                  "value" : 659.0
               },
               {
                  "name" : "num_zones_x_hours_over_70",
                  "units" : "zones",
                  "value" : 19
               },
               {
                  "name" : "num_zones_x_hours_over_55",
                  "units" : "zones",
                  "value" : 23
               },
               {
                  "name" : "inflation_approach",
                  "value" : "Constant Dollar"
               },
               {
                  "name" : "analysis_length",
                  "units" : "yrs",
                  "value" : 25
               },
               {
                  "name" : "number_of_measures_with_warnings",
                  "value" : 1
               },
               {
                  "name" : "number_warnings",
                  "value" : 3
               },
               {
                  "name" : "annual_peak_electric_demand",
                  "units" : "kW",
                  "value" : 1709.5663000000002
               },
               {
                  "name" : "first_year_capital_cost",
                  "units" : "$",
                  "value" : 0.0
               },
               {
                  "name" : "annual_utility_cost",
                  "units" : "$",
                  "value" : 0.0
               },
               {
                  "name" : "total_lifecycle_cost",
                  "units" : "$",
                  "value" : 0.0
               }
            ],
            "step_warnings" : []
         }
      }
   ],
   "updated_at" : "20240717T104725Z",
   "weather_file" : "CAN_PQ_Montreal.Intl.AP.716270_CWEC.epw"
}