Program Version,EnergyPlus, Version 23.2.0-7636e6b3e9, YMD=2024.07.17 07:44
! <Version>, Version ID
 Version, 23.2
! <Timesteps per Hour>, #TimeSteps, Minutes per TimeStep {minutes}
 Timesteps per Hour,  6, 10
! <System Convergence Limits>, Minimum System TimeStep {minutes}, Max HVAC Iterations, Minimum Plant Iterations, Maximum Plant Iterations
 System Convergence Limits, 1, 20, 2, 8
! <Simulation Control>, Do Zone Sizing, Do System Sizing, Do Plant Sizing, Do Design Days, Do Weather Simulation, Do HVAC Sizing Simulation
 Simulation Control, Yes, No, Yes, Yes, Yes, No
! <Performance Precision Tradeoffs>, Use Coil Direct Simulation, Zone Radiant Exchange Algorithm, Override Mode, Number of Timestep In Hour, Force Euler Method, Minimum Number of Warmup Days, Force Suppress All Begin Environment Resets, Minimum System Timestep, MaxZoneTempDiff, MaxAllowedDelTemp
 Performance Precision Tradeoffs, No, ScriptF, Normal, 6, No, 1, No, 1.0, 0.300, 2.0000E-003
! <Output Reporting Tolerances>, Tolerance for Time Heating Setpoint Not Met, Tolerance for Zone Cooling Setpoint Not Met Time
 Output Reporting Tolerances, 0.200, 0.200, 
! <Site:GroundTemperature:BuildingSurface>,Jan{C},Feb{C},Mar{C},Apr{C},May{C},Jun{C},Jul{C},Aug{C},Sep{C},Oct{C},Nov{C},Dec{C}
 Site:GroundTemperature:BuildingSurface,  18.00,  18.00,  18.00,  18.00,  18.00,  18.00,  18.00,  18.00,  18.00,  18.00,  18.00,  18.00
! <Site:GroundTemperature:FCfactorMethod>,Jan{C},Feb{C},Mar{C},Apr{C},May{C},Jun{C},Jul{C},Aug{C},Sep{C},Oct{C},Nov{C},Dec{C}
 Site:GroundTemperature:FCfactorMethod,  -1.50,  -6.19,  -7.46,  -6.35,  -0.03,   7.05,  13.71,  18.53,  19.94,  17.67,  12.21,   5.33
! <Site:GroundTemperature:Shallow>,Jan{C},Feb{C},Mar{C},Apr{C},May{C},Jun{C},Jul{C},Aug{C},Sep{C},Oct{C},Nov{C},Dec{C}
 Site:GroundTemperature:Shallow,  13.00,  13.00,  13.00,  13.00,  13.00,  13.00,  13.00,  13.00,  13.00,  13.00,  13.00,  13.00
! <Site:GroundTemperature:Deep>,Jan{C},Feb{C},Mar{C},Apr{C},May{C},Jun{C},Jul{C},Aug{C},Sep{C},Oct{C},Nov{C},Dec{C}
 Site:GroundTemperature:Deep,  16.00,  16.00,  16.00,  16.00,  16.00,  16.00,  16.00,  16.00,  16.00,  16.00,  16.00,  16.00
! <Site:GroundReflectance>,Jan{dimensionless},Feb{dimensionless},Mar{dimensionless},Apr{dimensionless},May{dimensionless},Jun{dimensionless},Jul{dimensionless},Aug{dimensionless},Sep{dimensionless},Oct{dimensionless},Nov{dimensionless},Dec{dimensionless}
 Site:GroundReflectance,  0.20,  0.20,  0.20,  0.20,  0.20,  0.20,  0.20,  0.20,  0.20,  0.20,  0.20,  0.20
! <Site:GroundReflectance:SnowModifier>, Normal, Daylighting {dimensionless}
 Site:GroundReflectance:SnowModifier,   1.000,   1.000
! <Site:GroundReflectance:Snow>,Jan{dimensionless},Feb{dimensionless},Mar{dimensionless},Apr{dimensionless},May{dimensionless},Jun{dimensionless},Jul{dimensionless},Aug{dimensionless},Sep{dimensionless},Oct{dimensionless},Nov{dimensionless},Dec{dimensionless}
 Site:GroundReflectance:Snow,  0.20,  0.20,  0.20,  0.20,  0.20,  0.20,  0.20,  0.20,  0.20,  0.20,  0.20,  0.20
! <Site:GroundReflectance:Snow:Daylighting>,Jan{dimensionless},Feb{dimensionless},Mar{dimensionless},Apr{dimensionless},May{dimensionless},Jun{dimensionless},Jul{dimensionless},Aug{dimensionless},Sep{dimensionless},Oct{dimensionless},Nov{dimensionless},Dec{dimensionless}
 Site:GroundReflectance:Snow:Daylighting,  0.20,  0.20,  0.20,  0.20,  0.20,  0.20,  0.20,  0.20,  0.20,  0.20,  0.20,  0.20
! <Environment:Weather Station>,Wind Sensor Height Above Ground {m},Wind Speed Profile Exponent {},Wind Speed Profile Boundary Layer Thickness {m},Air Temperature Sensor Height Above Ground {m},Wind Speed Modifier Coefficient-Internal,Temperature Modifier Coefficient-Internal
Environment:Weather Station,10.000,0.140,270.000,1.500,1.586,9.750E-003
! <Site:Location>, Location Name, Latitude {N+/S- Deg}, Longitude {E+/W- Deg},  Time Zone Number {GMT+/-}, Elevation {m},  Standard Pressure at Elevation {Pa}, Standard RhoAir at Elevation
Site:Location,Montreal Int'l PQ CAN WYEC2-B-94792 WMO#=716270,45.47,-73.75,-5.00,36.00,100893,1.1992
! <Site Water Mains Temperature Information>,Calculation Method{},Water Mains Temperature Schedule Name{},Annual Average Outdoor Air Temperature{C},Maximum Difference In Monthly Average Outdoor Air Temperatures{deltaC},Fixed Default Water Mains Temperature{C}
Site Water Mains Temperature Information,FixedDefault,NA,NA,NA,10.0
! <Building Information>, Building Name,North Axis {deg},Terrain,  Loads Convergence Tolerance Value,Temperature Convergence Tolerance Value,  Solar Distribution,Maximum Number of Warmup Days,Minimum Number of Warmup Days
 Building Information,Building 1,0.000,Suburbs,4.00000E-002,0.40000,FullExterior,25,1
! <Inside Convection Algorithm>, Algorithm {Simple | TARP | CeilingDiffuser | AdaptiveConvectionAlgorithm}
Inside Convection Algorithm,TARP
! <Outside Convection Algorithm>, Algorithm {SimpleCombined | TARP | MoWitt | DOE-2 | AdaptiveConvectionAlgorithm}
Outside Convection Algorithm,DOE-2
! <Sky Radiance Distribution>, Value {Anisotropic}
Sky Radiance Distribution,Anisotropic
! <Zone Air Solution Algorithm>, Algorithm {ThirdOrderBackwardDifference | AnalyticalSolution | EulerMethod}, Space Heat Balance Sizing, Space Heat Balance Simulation
 Zone Air Solution Algorithm, AnalyticalSolution, No, No
! <Zone Air Carbon Dioxide Balance Simulation>, Simulation {Yes/No}, Carbon Dioxide Concentration
 Zone Air Carbon Dioxide Balance Simulation, No,N/A
! <Zone Air Generic Contaminant Balance Simulation>, Simulation {Yes/No}, Generic Contaminant Concentration
 Zone Air Generic Contaminant Balance Simulation, No,N/A
! <Zone Air Mass Flow Balance Simulation>, Enforce Mass Balance, Adjust Zone Mixing and Return {AdjustMixingOnly | AdjustReturnOnly | AdjustMixingThenReturn | AdjustReturnThenMixing | None}, Adjust Zone Infiltration {AddInfiltration | AdjustInfiltration | None}, Infiltration Zones {MixingSourceZonesOnly | AllZones}
 Zone Air Mass Flow Balance Simulation, No,N/A,N/A,N/A
! <HVACSystemRootFindingAlgorithm>, Value {RegulaFalsi | Bisection | BisectionThenRegulaFalsi | RegulaFalsiThenBisection}
 HVACSystemRootFindingAlgorithm, RegulaFalsi
! <Environment:Site Atmospheric Variation>,Wind Speed Profile Exponent {},Wind Speed Profile Boundary Layer Thickness {m},Air Temperature Gradient Coefficient {K/m}
Environment:Site Atmospheric Variation,0.220,370.000,6.500000E-003
! <Surface Geometry>,Starting Corner,Vertex Input Direction,Coordinate System,Daylight Reference Point Coordinate System,Rectangular (Simple) Surface Coordinate System
 Surface Geometry,UpperLeftCorner,Counterclockwise,RelativeCoordinateSystem,RelativeCoordinateSystem,RelativeToZoneOrigin
! <Surface Heat Transfer Algorithm>, Value {CTF - ConductionTransferFunction | EMPD - MoisturePenetrationDepthConductionTransferFunction | CondFD - ConductionFiniteDifference | HAMT - CombinedHeatAndMoistureFiniteElement} - Description,Inside Surface Max Temperature Limit{C}, Surface Convection Coefficient Lower Limit {W/m2-K}, Surface Convection Coefficient Upper Limit {W/m2-K}
Surface Heat Transfer Algorithm, CTF - ConductionTransferFunction,200,0.10,1000.0
! <Shading Summary>, Number of Fixed Detached Shades, Number of Building Detached Shades, Number of Attached Shades
 Shading Summary,0,12,0
! <Zone Summary>, Number of Zones, Number of Zone Surfaces, Number of SubSurfaces
 Zone Summary,28,323,129
! <Zone Information>,Zone Name,North Axis {deg},Origin X-Coordinate {m},Origin Y-Coordinate {m},Origin Z-Coordinate {m},Centroid X-Coordinate {m},Centroid Y-Coordinate {m},Centroid Z-Coordinate {m},Type,Zone Multiplier,Zone List Multiplier,Minimum X {m},Maximum X {m},Minimum Y {m},Maximum Y {m},Minimum Z {m},Maximum Z {m},Ceiling Height {m},Volume {m3},Zone Inside Convection Algorithm {Simple-Detailed-CeilingDiffuser-TrombeWall},Zone Outside Convection Algorithm {Simple-Detailed-Tarp-MoWitt-DOE-2-BLAST}, Floor Area {m2},Exterior Gross Wall Area {m2},Exterior Net Wall Area {m2},Exterior Window Area {m2}, Number of Surfaces, Number of SubSurfaces, Number of Shading SubSurfaces,  Part of Total Building Area
 Zone Information, THERMAL ZONE 1,0.0,12.00,24.50,3.05,17.00,28.75,4.57,1,1,1,12.00,22.00,24.50,33.00,3.05,6.10,3.05,259.08,TARP,DOE-2,85.00,82.30,57.61,24.69,6,3,0,Yes
 Zone Information, THERMAL ZONE 10,0.0,2.89E-015,16.00,3.05,5.00,20.25,4.57,1,1,1,2.89E-015,10.00,16.00,24.50,3.05,6.10,3.05,259.08,TARP,DOE-2,85.00,112.78,78.94,33.83,6,4,0,Yes
 Zone Information, THERMAL ZONE 11,0.0,2.89E-015,24.50,3.05,5.00,28.75,4.57,1,1,1,2.89E-015,10.00,24.50,33.00,3.05,6.10,3.05,259.08,TARP,DOE-2,85.00,112.78,78.94,33.83,6,4,0,Yes
 Zone Information, THERMAL ZONE 12,0.0,10.00,33.00,21.10,11.00,16.50,22.62,1,10,1,10.00,12.00,0.00,33.00,21.10,24.14,3.05,201.17,TARP,DOE-2,66.00,207.26,145.08,62.18,13,10,0,Yes
 Zone Information, THERMAL ZONE 13,0.0,2.89E-015,8.00,39.14,5.00,12.00,40.67,1,1,1,2.89E-015,10.00,8.00,16.00,39.14,42.19,3.05,243.84,TARP,DOE-2,80.00,109.73,76.81,32.92,7,5,0,Yes
 Zone Information, THERMAL ZONE 14,0.0,22.00,8.00,21.10,17.00,4.00,22.62,1,10,1,12.00,22.00,0.00,8.00,21.10,24.14,3.05,243.84,TARP,DOE-2,80.00,109.73,76.81,32.92,6,4,0,Yes
 Zone Information, THERMAL ZONE 15,0.0,2.89E-015,16.00,21.10,5.00,20.25,22.62,1,10,1,2.89E-015,10.00,16.00,24.50,21.10,24.14,3.05,259.08,TARP,DOE-2,85.00,112.78,78.94,33.83,6,4,0,Yes
 Zone Information, THERMAL ZONE 16,0.0,2.89E-015,8.00,21.10,5.00,12.00,22.62,1,10,1,2.89E-015,10.00,8.00,16.00,21.10,24.14,3.05,243.84,TARP,DOE-2,80.00,109.73,76.81,32.92,7,5,0,Yes
 Zone Information, THERMAL ZONE 17,0.0,22.00,16.00,21.10,17.00,12.00,22.62,1,10,1,12.00,22.00,8.00,16.00,21.10,24.14,3.05,243.84,TARP,DOE-2,80.00,109.73,76.81,32.92,6,4,0,Yes
 Zone Information, THERMAL ZONE 18,0.0,22.00,8.00,39.14,17.00,4.00,40.67,1,1,1,12.00,22.00,0.00,8.00,39.14,42.19,3.05,243.84,TARP,DOE-2,80.00,109.73,76.81,32.92,6,4,0,Yes
 Zone Information, THERMAL ZONE 19,0.0,22.00,24.50,21.10,17.00,20.25,22.62,1,10,1,12.00,22.00,16.00,24.50,21.10,24.14,3.05,259.08,TARP,DOE-2,85.00,112.78,78.94,33.83,6,4,0,Yes
 Zone Information, THERMAL ZONE 2,0.0,22.00,0.00,0.00,11.00,16.50,1.52,1,1,1,0.00,22.00,0.00,33.00,0.00,3.05,3.05,2212.85,TARP,DOE-2,726.00,268.22,187.76,80.47,6,3,0,Yes
 Zone Information, THERMAL ZONE 20,0.0,10.00,8.00,21.10,5.00,4.00,22.62,1,10,1,0.00,10.00,0.00,8.00,21.10,24.14,3.05,243.84,TARP,DOE-2,80.00,109.73,76.81,32.92,6,4,0,Yes
 Zone Information, THERMAL ZONE 21,0.0,2.89E-015,24.50,21.10,5.00,28.75,22.62,1,10,1,2.89E-015,10.00,24.50,33.00,21.10,24.14,3.05,259.08,TARP,DOE-2,85.00,82.30,57.61,24.69,6,3,0,Yes
 Zone Information, THERMAL ZONE 22,0.0,12.00,24.50,21.10,17.00,28.75,22.62,1,10,1,12.00,22.00,24.50,33.00,21.10,24.14,3.05,259.08,TARP,DOE-2,85.00,82.30,57.61,24.69,6,3,0,Yes
 Zone Information, THERMAL ZONE 23,0.0,10.00,33.00,39.14,11.00,16.74,40.43,1,1,1,10.00,12.00,0.00,33.00,39.14,42.19,3.05,402.34,TARP,DOE-2,132.00,213.36,149.35,64.01,15,11,0,Yes
 Zone Information, THERMAL ZONE 24,0.0,22.00,16.00,39.14,17.00,12.00,40.67,1,1,1,12.00,22.00,8.00,16.00,39.14,42.19,3.05,243.84,TARP,DOE-2,80.00,109.73,76.81,32.92,6,4,0,Yes
 Zone Information, THERMAL ZONE 25,0.0,10.00,8.00,39.14,5.00,4.00,40.67,1,1,1,0.00,10.00,0.00,8.00,39.14,42.19,3.05,243.84,TARP,DOE-2,80.00,109.73,76.81,32.92,6,4,0,Yes
 Zone Information, THERMAL ZONE 26,0.0,2.89E-015,16.00,39.14,5.00,20.25,40.67,1,1,1,2.89E-015,10.00,16.00,24.50,39.14,42.19,3.05,259.08,TARP,DOE-2,85.00,112.78,78.94,33.83,6,4,0,Yes
 Zone Information, THERMAL ZONE 27,0.0,22.00,24.50,39.14,17.00,20.25,40.67,1,1,1,12.00,22.00,16.00,24.50,39.14,42.19,3.05,259.08,TARP,DOE-2,85.00,112.78,78.94,33.83,6,4,0,Yes
 Zone Information, THERMAL ZONE 28,0.0,12.00,24.50,39.14,17.00,28.75,40.67,1,1,1,12.00,22.00,24.50,33.00,39.14,42.19,3.05,259.08,TARP,DOE-2,85.00,82.30,57.61,24.69,6,3,0,Yes
 Zone Information, THERMAL ZONE 3,0.0,10.00,8.00,3.05,5.00,4.00,4.57,1,1,1,0.00,10.00,0.00,8.00,3.05,6.10,3.05,243.84,TARP,DOE-2,80.00,109.73,76.81,32.92,6,4,0,Yes
 Zone Information, THERMAL ZONE 4,0.0,10.00,33.00,3.05,11.00,16.50,4.57,1,1,1,10.00,12.00,0.00,33.00,3.05,6.10,3.05,201.17,TARP,DOE-2,66.00,213.36,149.35,64.01,13,11,0,Yes
 Zone Information, THERMAL ZONE 5,0.0,2.89E-015,8.00,3.05,5.00,12.00,4.57,1,1,1,2.89E-015,10.00,8.00,16.00,3.05,6.10,3.05,243.84,TARP,DOE-2,80.00,109.73,76.81,32.92,7,5,0,Yes
 Zone Information, THERMAL ZONE 6,0.0,22.00,8.00,3.05,17.00,4.00,4.57,1,1,1,12.00,22.00,0.00,8.00,3.05,6.10,3.05,243.84,TARP,DOE-2,80.00,109.73,76.81,32.92,6,4,0,Yes
 Zone Information, THERMAL ZONE 7,0.0,22.00,16.00,3.05,17.00,12.00,4.57,1,1,1,12.00,22.00,8.00,16.00,3.05,6.10,3.05,243.84,TARP,DOE-2,80.00,109.73,76.81,32.92,6,4,0,Yes
 Zone Information, THERMAL ZONE 8,0.0,22.00,24.50,3.05,17.00,20.25,4.57,1,1,1,12.00,22.00,16.00,24.50,3.05,6.10,3.05,259.08,TARP,DOE-2,85.00,112.78,78.94,33.83,6,4,0,Yes
 Zone Information, THERMAL ZONE 9,0.0,2.89E-015,24.50,39.14,5.00,28.75,40.67,1,1,1,2.89E-015,10.00,24.50,33.00,39.14,42.19,3.05,259.08,TARP,DOE-2,85.00,82.30,57.61,24.69,6,3,0,Yes
! <Zone Internal Gains Nominal>,Zone Name, Floor Area {m2},# Occupants,Area per Occupant {m2/person},Occupant per Area {person/m2},Interior Lighting {W/m2},Electric Load {W/m2},Gas Load {W/m2},Other Load {W/m2},Hot Water Eq {W/m2},Steam Equipment {W/m2},Sum Loads per Area {W/m2},Outdoor Controlled Baseboard Heat
 Zone Internal Gains Nominal, THERMAL ZONE 1,85.00,0.0,N/A,0.000,0.000,0.000,0.000,0.000,0.000,0.000,0.000,No
 Zone Internal Gains Nominal, THERMAL ZONE 10,85.00,0.0,N/A,0.000,0.000,0.000,0.000,0.000,0.000,0.000,0.000,No
 Zone Internal Gains Nominal, THERMAL ZONE 11,85.00,0.0,N/A,0.000,0.000,0.000,0.000,0.000,0.000,0.000,0.000,No
 Zone Internal Gains Nominal, THERMAL ZONE 12,66.00,0.0,N/A,0.000,0.000,0.000,0.000,0.000,0.000,0.000,0.000,No
 Zone Internal Gains Nominal, THERMAL ZONE 13,80.00,0.0,N/A,0.000,0.000,0.000,0.000,0.000,0.000,0.000,0.000,No
 Zone Internal Gains Nominal, THERMAL ZONE 14,80.00,0.0,N/A,0.000,0.000,0.000,0.000,0.000,0.000,0.000,0.000,No
 Zone Internal Gains Nominal, THERMAL ZONE 15,85.00,0.0,N/A,0.000,0.000,0.000,0.000,0.000,0.000,0.000,0.000,No
 Zone Internal Gains Nominal, THERMAL ZONE 16,80.00,0.0,N/A,0.000,0.000,0.000,0.000,0.000,0.000,0.000,0.000,No
 Zone Internal Gains Nominal, THERMAL ZONE 17,80.00,0.0,N/A,0.000,0.000,0.000,0.000,0.000,0.000,0.000,0.000,No
 Zone Internal Gains Nominal, THERMAL ZONE 18,80.00,0.0,N/A,0.000,0.000,0.000,0.000,0.000,0.000,0.000,0.000,No
 Zone Internal Gains Nominal, THERMAL ZONE 19,85.00,0.0,N/A,0.000,0.000,0.000,0.000,0.000,0.000,0.000,0.000,No
 Zone Internal Gains Nominal, THERMAL ZONE 2,726.00,0.0,N/A,0.000,0.000,0.000,0.000,0.000,0.000,0.000,0.000,No
 Zone Internal Gains Nominal, THERMAL ZONE 20,80.00,0.0,N/A,0.000,0.000,0.000,0.000,0.000,0.000,0.000,0.000,No
 Zone Internal Gains Nominal, THERMAL ZONE 21,85.00,0.0,N/A,0.000,0.000,0.000,0.000,0.000,0.000,0.000,0.000,No
 Zone Internal Gains Nominal, THERMAL ZONE 22,85.00,0.0,N/A,0.000,0.000,0.000,0.000,0.000,0.000,0.000,0.000,No
 Zone Internal Gains Nominal, THERMAL ZONE 23,132.00,0.0,N/A,0.000,0.000,0.000,0.000,0.000,0.000,0.000,0.000,No
 Zone Internal Gains Nominal, THERMAL ZONE 24,80.00,0.0,N/A,0.000,0.000,0.000,0.000,0.000,0.000,0.000,0.000,No
 Zone Internal Gains Nominal, THERMAL ZONE 25,80.00,0.0,N/A,0.000,0.000,0.000,0.000,0.000,0.000,0.000,0.000,No
 Zone Internal Gains Nominal, THERMAL ZONE 26,85.00,0.0,N/A,0.000,0.000,0.000,0.000,0.000,0.000,0.000,0.000,No
 Zone Internal Gains Nominal, THERMAL ZONE 27,85.00,0.0,N/A,0.000,0.000,0.000,0.000,0.000,0.000,0.000,0.000,No
 Zone Internal Gains Nominal, THERMAL ZONE 28,85.00,0.0,N/A,0.000,0.000,0.000,0.000,0.000,0.000,0.000,0.000,No
 Zone Internal Gains Nominal, THERMAL ZONE 3,80.00,0.0,N/A,0.000,0.000,0.000,0.000,0.000,0.000,0.000,0.000,No
 Zone Internal Gains Nominal, THERMAL ZONE 4,66.00,0.0,N/A,0.000,0.000,0.000,0.000,0.000,0.000,0.000,0.000,No
 Zone Internal Gains Nominal, THERMAL ZONE 5,80.00,0.0,N/A,0.000,0.000,0.000,0.000,0.000,0.000,0.000,0.000,No
 Zone Internal Gains Nominal, THERMAL ZONE 6,80.00,0.0,N/A,0.000,0.000,0.000,0.000,0.000,0.000,0.000,0.000,No
 Zone Internal Gains Nominal, THERMAL ZONE 7,80.00,0.0,N/A,0.000,0.000,0.000,0.000,0.000,0.000,0.000,0.000,No
 Zone Internal Gains Nominal, THERMAL ZONE 8,85.00,0.0,N/A,0.000,0.000,0.000,0.000,0.000,0.000,0.000,0.000,No
 Zone Internal Gains Nominal, THERMAL ZONE 9,85.00,0.0,N/A,0.000,0.000,0.000,0.000,0.000,0.000,0.000,0.000,No
! <Shadowing/Sun Position Calculations Annual Simulations>, Shading Calculation Method, Shading Calculation Update Frequency Method, Shading Calculation Update Frequency {days}, Maximum Figures in Shadow Overlap Calculations {}, Polygon Clipping Algorithm, Pixel Counting Resolution, Sky Diffuse Modeling Algorithm, Output External Shading Calculation Results, Disable Self-Shading Within Shading Zone Groups, Disable Self-Shading From Shading Zone Groups to Other Zones
Shadowing/Sun Position Calculations Annual Simulations,PolygonClipping,Periodic,7,15000,SutherlandHodgman,512,SimpleSkyDiffuseModeling,No,No,No
! <Water Heater Information>,Type,Name,Volume {m3},Maximum Capacity {W},Standard Rated Recovery Efficiency, Standard Rated Energy Factor
! <ZoneInfiltration Airflow Stats Nominal>,Name,Schedule Name,Zone Name, Zone Floor Area {m2}, # Zone Occupants,Design Volume Flow Rate {m3/s},Volume Flow Rate/Floor Area {m3/s-m2},Volume Flow Rate/Exterior Surface Area {m3/s-m2},ACH - Air Changes per Hour,Equation A - Constant Term Coefficient {},Equation B - Temperature Term Coefficient {1/C},Equation C - Velocity Term Coefficient {s/m}, Equation D - Velocity Squared Term Coefficient {s2/m2}
 ZoneInfiltration Airflow Stats Nominal, SPACE 110 HVAC OFF INFILTRATION,INFILTRATION HVAC OFF SCHEDULE,THERMAL ZONE 1,85.00,0.0,5.102E-003,6.002E-005,6.199E-005,7.089E-002,0.107,1.199E-002,0.000,1.348E-002
 ZoneInfiltration Airflow Stats Nominal, SPACE 110 HVAC ON INFILTRATION,INFILTRATION HVAC ON SCHEDULE,THERMAL ZONE 1,85.00,0.0,5.102E-003,6.002E-005,6.199E-005,7.089E-002,0.107,1.199E-002,0.000,1.348E-002
 ZoneInfiltration Airflow Stats Nominal, SPACE 107 HVAC OFF INFILTRATION,INFILTRATION HVAC OFF SCHEDULE,THERMAL ZONE 10,85.00,0.0,6.991E-003,8.225E-005,6.199E-005,9.715E-002,0.107,1.199E-002,0.000,1.348E-002
 ZoneInfiltration Airflow Stats Nominal, SPACE 107 HVAC ON INFILTRATION,INFILTRATION HVAC ON SCHEDULE,THERMAL ZONE 10,85.00,0.0,6.991E-003,8.225E-005,6.199E-005,9.715E-002,0.107,1.199E-002,0.000,1.348E-002
 ZoneInfiltration Airflow Stats Nominal, SPACE 109 HVAC OFF INFILTRATION,INFILTRATION HVAC OFF SCHEDULE,THERMAL ZONE 11,85.00,0.0,6.991E-003,8.225E-005,6.199E-005,9.715E-002,0.107,1.199E-002,0.000,1.348E-002
 ZoneInfiltration Airflow Stats Nominal, SPACE 109 HVAC ON INFILTRATION,INFILTRATION HVAC ON SCHEDULE,THERMAL ZONE 11,85.00,0.0,6.991E-003,8.225E-005,6.199E-005,9.715E-002,0.107,1.199E-002,0.000,1.348E-002
 ZoneInfiltration Airflow Stats Nominal, SPACE 111 HVAC OFF INFILTRATION,INFILTRATION HVAC OFF SCHEDULE,THERMAL ZONE 12,66.00,0.0,1.285E-002,1.947E-004,6.199E-005,0.230,0.107,1.199E-002,0.000,1.348E-002
 ZoneInfiltration Airflow Stats Nominal, SPACE 111 HVAC ON INFILTRATION,INFILTRATION HVAC ON SCHEDULE,THERMAL ZONE 12,66.00,0.0,1.285E-002,1.947E-004,6.199E-005,0.230,0.107,1.199E-002,0.000,1.348E-002
 ZoneInfiltration Airflow Stats Nominal, SPACE 120 HVAC OFF INFILTRATION,INFILTRATION HVAC OFF SCHEDULE,THERMAL ZONE 13,80.00,0.0,1.176E-002,1.470E-004,6.199E-005,0.174,0.107,1.199E-002,0.000,1.348E-002
 ZoneInfiltration Airflow Stats Nominal, SPACE 120 HVAC ON INFILTRATION,INFILTRATION HVAC ON SCHEDULE,THERMAL ZONE 13,80.00,0.0,1.176E-002,1.470E-004,6.199E-005,0.174,0.107,1.199E-002,0.000,1.348E-002
 ZoneInfiltration Airflow Stats Nominal, SPACE 112 HVAC OFF INFILTRATION,INFILTRATION HVAC OFF SCHEDULE,THERMAL ZONE 14,80.00,0.0,6.802E-003,8.503E-005,6.199E-005,0.100,0.107,1.199E-002,0.000,1.348E-002
 ZoneInfiltration Airflow Stats Nominal, SPACE 112 HVAC ON INFILTRATION,INFILTRATION HVAC ON SCHEDULE,THERMAL ZONE 14,80.00,0.0,6.802E-003,8.503E-005,6.199E-005,0.100,0.107,1.199E-002,0.000,1.348E-002
 ZoneInfiltration Airflow Stats Nominal, SPACE 113 HVAC OFF INFILTRATION,INFILTRATION HVAC OFF SCHEDULE,THERMAL ZONE 15,85.00,0.0,6.991E-003,8.225E-005,6.199E-005,9.715E-002,0.107,1.199E-002,0.000,1.348E-002
 ZoneInfiltration Airflow Stats Nominal, SPACE 113 HVAC ON INFILTRATION,INFILTRATION HVAC ON SCHEDULE,THERMAL ZONE 15,85.00,0.0,6.991E-003,8.225E-005,6.199E-005,9.715E-002,0.107,1.199E-002,0.000,1.348E-002
 ZoneInfiltration Airflow Stats Nominal, SPACE 116 HVAC OFF INFILTRATION,INFILTRATION HVAC OFF SCHEDULE,THERMAL ZONE 16,80.00,0.0,6.802E-003,8.503E-005,6.199E-005,0.100,0.107,1.199E-002,0.000,1.348E-002
 ZoneInfiltration Airflow Stats Nominal, SPACE 116 HVAC ON INFILTRATION,INFILTRATION HVAC ON SCHEDULE,THERMAL ZONE 16,80.00,0.0,6.802E-003,8.503E-005,6.199E-005,0.100,0.107,1.199E-002,0.000,1.348E-002
 ZoneInfiltration Airflow Stats Nominal, SPACE 114 HVAC OFF INFILTRATION,INFILTRATION HVAC OFF SCHEDULE,THERMAL ZONE 17,80.00,0.0,6.802E-003,8.503E-005,6.199E-005,0.100,0.107,1.199E-002,0.000,1.348E-002
 ZoneInfiltration Airflow Stats Nominal, SPACE 114 HVAC ON INFILTRATION,INFILTRATION HVAC ON SCHEDULE,THERMAL ZONE 17,80.00,0.0,6.802E-003,8.503E-005,6.199E-005,0.100,0.107,1.199E-002,0.000,1.348E-002
 ZoneInfiltration Airflow Stats Nominal, SPACE 125 HVAC OFF INFILTRATION,INFILTRATION HVAC OFF SCHEDULE,THERMAL ZONE 18,80.00,0.0,1.176E-002,1.470E-004,6.199E-005,0.174,0.107,1.199E-002,0.000,1.348E-002
 ZoneInfiltration Airflow Stats Nominal, SPACE 125 HVAC ON INFILTRATION,INFILTRATION HVAC ON SCHEDULE,THERMAL ZONE 18,80.00,0.0,1.176E-002,1.470E-004,6.199E-005,0.174,0.107,1.199E-002,0.000,1.348E-002
 ZoneInfiltration Airflow Stats Nominal, SPACE 115 HVAC OFF INFILTRATION,INFILTRATION HVAC OFF SCHEDULE,THERMAL ZONE 19,85.00,0.0,6.991E-003,8.225E-005,6.199E-005,9.715E-002,0.107,1.199E-002,0.000,1.348E-002
 ZoneInfiltration Airflow Stats Nominal, SPACE 115 HVAC ON INFILTRATION,INFILTRATION HVAC ON SCHEDULE,THERMAL ZONE 19,85.00,0.0,6.991E-003,8.225E-005,6.199E-005,9.715E-002,0.107,1.199E-002,0.000,1.348E-002
 ZoneInfiltration Airflow Stats Nominal, SPACE 101 HVAC OFF INFILTRATION,INFILTRATION HVAC OFF SCHEDULE,THERMAL ZONE 2,726.00,0.0,6.163E-002,8.490E-005,6.199E-005,0.100,0.107,1.199E-002,0.000,1.348E-002
 ZoneInfiltration Airflow Stats Nominal, SPACE 101 HVAC ON INFILTRATION,INFILTRATION HVAC ON SCHEDULE,THERMAL ZONE 2,726.00,0.0,6.163E-002,8.490E-005,6.199E-005,0.100,0.107,1.199E-002,0.000,1.348E-002
 ZoneInfiltration Airflow Stats Nominal, SPACE 117 HVAC OFF INFILTRATION,INFILTRATION HVAC OFF SCHEDULE,THERMAL ZONE 20,80.00,0.0,6.802E-003,8.503E-005,6.199E-005,0.100,0.107,1.199E-002,0.000,1.348E-002
 ZoneInfiltration Airflow Stats Nominal, SPACE 117 HVAC ON INFILTRATION,INFILTRATION HVAC ON SCHEDULE,THERMAL ZONE 20,80.00,0.0,6.802E-003,8.503E-005,6.199E-005,0.100,0.107,1.199E-002,0.000,1.348E-002
 ZoneInfiltration Airflow Stats Nominal, SPACE 118 HVAC OFF INFILTRATION,INFILTRATION HVAC OFF SCHEDULE,THERMAL ZONE 21,85.00,0.0,5.102E-003,6.002E-005,6.199E-005,7.089E-002,0.107,1.199E-002,0.000,1.348E-002
 ZoneInfiltration Airflow Stats Nominal, SPACE 118 HVAC ON INFILTRATION,INFILTRATION HVAC ON SCHEDULE,THERMAL ZONE 21,85.00,0.0,5.102E-003,6.002E-005,6.199E-005,7.089E-002,0.107,1.199E-002,0.000,1.348E-002
 ZoneInfiltration Airflow Stats Nominal, SPACE 119 HVAC OFF INFILTRATION,INFILTRATION HVAC OFF SCHEDULE,THERMAL ZONE 22,85.00,0.0,5.102E-003,6.002E-005,6.199E-005,7.089E-002,0.107,1.199E-002,0.000,1.348E-002
 ZoneInfiltration Airflow Stats Nominal, SPACE 119 HVAC ON INFILTRATION,INFILTRATION HVAC ON SCHEDULE,THERMAL ZONE 22,85.00,0.0,5.102E-003,6.002E-005,6.199E-005,7.089E-002,0.107,1.199E-002,0.000,1.348E-002
 ZoneInfiltration Airflow Stats Nominal, SPACE 121 HVAC OFF INFILTRATION,INFILTRATION HVAC OFF SCHEDULE,THERMAL ZONE 23,132.00,0.0,1.732E-002,1.312E-004,6.199E-005,0.155,0.107,1.199E-002,0.000,1.348E-002
 ZoneInfiltration Airflow Stats Nominal, SPACE 121 HVAC ON INFILTRATION,INFILTRATION HVAC ON SCHEDULE,THERMAL ZONE 23,132.00,0.0,1.732E-002,1.312E-004,6.199E-005,0.155,0.107,1.199E-002,0.000,1.348E-002
 ZoneInfiltration Airflow Stats Nominal, SPACE 122 HVAC OFF INFILTRATION,INFILTRATION HVAC OFF SCHEDULE,THERMAL ZONE 24,80.00,0.0,1.176E-002,1.470E-004,6.199E-005,0.174,0.107,1.199E-002,0.000,1.348E-002
 ZoneInfiltration Airflow Stats Nominal, SPACE 122 HVAC ON INFILTRATION,INFILTRATION HVAC ON SCHEDULE,THERMAL ZONE 24,80.00,0.0,1.176E-002,1.470E-004,6.199E-005,0.174,0.107,1.199E-002,0.000,1.348E-002
 ZoneInfiltration Airflow Stats Nominal, SPACE 123 HVAC OFF INFILTRATION,INFILTRATION HVAC OFF SCHEDULE,THERMAL ZONE 25,80.00,0.0,1.176E-002,1.470E-004,6.199E-005,0.174,0.107,1.199E-002,0.000,1.348E-002
 ZoneInfiltration Airflow Stats Nominal, SPACE 123 HVAC ON INFILTRATION,INFILTRATION HVAC ON SCHEDULE,THERMAL ZONE 25,80.00,0.0,1.176E-002,1.470E-004,6.199E-005,0.174,0.107,1.199E-002,0.000,1.348E-002
 ZoneInfiltration Airflow Stats Nominal, SPACE 126 HVAC OFF INFILTRATION,INFILTRATION HVAC OFF SCHEDULE,THERMAL ZONE 26,85.00,0.0,1.226E-002,1.442E-004,6.199E-005,0.170,0.107,1.199E-002,0.000,1.348E-002
 ZoneInfiltration Airflow Stats Nominal, SPACE 126 HVAC ON INFILTRATION,INFILTRATION HVAC ON SCHEDULE,THERMAL ZONE 26,85.00,0.0,1.226E-002,1.442E-004,6.199E-005,0.170,0.107,1.199E-002,0.000,1.348E-002
 ZoneInfiltration Airflow Stats Nominal, SPACE 127 HVAC OFF INFILTRATION,INFILTRATION HVAC OFF SCHEDULE,THERMAL ZONE 27,85.00,0.0,1.226E-002,1.442E-004,6.199E-005,0.170,0.107,1.199E-002,0.000,1.348E-002
 ZoneInfiltration Airflow Stats Nominal, SPACE 127 HVAC ON INFILTRATION,INFILTRATION HVAC ON SCHEDULE,THERMAL ZONE 27,85.00,0.0,1.226E-002,1.442E-004,6.199E-005,0.170,0.107,1.199E-002,0.000,1.348E-002
 ZoneInfiltration Airflow Stats Nominal, SPACE 128 HVAC OFF INFILTRATION,INFILTRATION HVAC OFF SCHEDULE,THERMAL ZONE 28,85.00,0.0,1.037E-002,1.220E-004,6.199E-005,0.144,0.107,1.199E-002,0.000,1.348E-002
 ZoneInfiltration Airflow Stats Nominal, SPACE 128 HVAC ON INFILTRATION,INFILTRATION HVAC ON SCHEDULE,THERMAL ZONE 28,85.00,0.0,1.037E-002,1.220E-004,6.199E-005,0.144,0.107,1.199E-002,0.000,1.348E-002
 ZoneInfiltration Airflow Stats Nominal, SPACE 102 HVAC OFF INFILTRATION,INFILTRATION HVAC OFF SCHEDULE,THERMAL ZONE 3,80.00,0.0,6.802E-003,8.503E-005,6.199E-005,0.100,0.107,1.199E-002,0.000,1.348E-002
 ZoneInfiltration Airflow Stats Nominal, SPACE 102 HVAC ON INFILTRATION,INFILTRATION HVAC ON SCHEDULE,THERMAL ZONE 3,80.00,0.0,6.802E-003,8.503E-005,6.199E-005,0.100,0.107,1.199E-002,0.000,1.348E-002
 ZoneInfiltration Airflow Stats Nominal, SPACE 103 HVAC OFF INFILTRATION,INFILTRATION HVAC OFF SCHEDULE,THERMAL ZONE 4,66.00,0.0,1.323E-002,2.004E-004,6.199E-005,0.237,0.107,1.199E-002,0.000,1.348E-002
 ZoneInfiltration Airflow Stats Nominal, SPACE 103 HVAC ON INFILTRATION,INFILTRATION HVAC ON SCHEDULE,THERMAL ZONE 4,66.00,0.0,1.323E-002,2.004E-004,6.199E-005,0.237,0.107,1.199E-002,0.000,1.348E-002
 ZoneInfiltration Airflow Stats Nominal, SPACE 105 HVAC OFF INFILTRATION,INFILTRATION HVAC OFF SCHEDULE,THERMAL ZONE 5,80.00,0.0,1.176E-002,1.470E-004,6.199E-005,0.174,0.107,1.199E-002,0.000,1.348E-002
 ZoneInfiltration Airflow Stats Nominal, SPACE 105 HVAC ON INFILTRATION,INFILTRATION HVAC ON SCHEDULE,THERMAL ZONE 5,80.00,0.0,1.176E-002,1.470E-004,6.199E-005,0.174,0.107,1.199E-002,0.000,1.348E-002
 ZoneInfiltration Airflow Stats Nominal, SPACE 104 HVAC OFF INFILTRATION,INFILTRATION HVAC OFF SCHEDULE,THERMAL ZONE 6,80.00,0.0,6.802E-003,8.503E-005,6.199E-005,0.100,0.107,1.199E-002,0.000,1.348E-002
 ZoneInfiltration Airflow Stats Nominal, SPACE 104 HVAC ON INFILTRATION,INFILTRATION HVAC ON SCHEDULE,THERMAL ZONE 6,80.00,0.0,6.802E-003,8.503E-005,6.199E-005,0.100,0.107,1.199E-002,0.000,1.348E-002
 ZoneInfiltration Airflow Stats Nominal, SPACE 106 HVAC OFF INFILTRATION,INFILTRATION HVAC OFF SCHEDULE,THERMAL ZONE 7,80.00,0.0,6.802E-003,8.503E-005,6.199E-005,0.100,0.107,1.199E-002,0.000,1.348E-002
 ZoneInfiltration Airflow Stats Nominal, SPACE 106 HVAC ON INFILTRATION,INFILTRATION HVAC ON SCHEDULE,THERMAL ZONE 7,80.00,0.0,6.802E-003,8.503E-005,6.199E-005,0.100,0.107,1.199E-002,0.000,1.348E-002
 ZoneInfiltration Airflow Stats Nominal, SPACE 108 HVAC OFF INFILTRATION,INFILTRATION HVAC OFF SCHEDULE,THERMAL ZONE 8,85.00,0.0,6.991E-003,8.225E-005,6.199E-005,9.715E-002,0.107,1.199E-002,0.000,1.348E-002
 ZoneInfiltration Airflow Stats Nominal, SPACE 108 HVAC ON INFILTRATION,INFILTRATION HVAC ON SCHEDULE,THERMAL ZONE 8,85.00,0.0,6.991E-003,8.225E-005,6.199E-005,9.715E-002,0.107,1.199E-002,0.000,1.348E-002
 ZoneInfiltration Airflow Stats Nominal, SPACE 124 HVAC OFF INFILTRATION,INFILTRATION HVAC OFF SCHEDULE,THERMAL ZONE 9,85.00,0.0,1.037E-002,1.220E-004,6.199E-005,0.144,0.107,1.199E-002,0.000,1.348E-002
 ZoneInfiltration Airflow Stats Nominal, SPACE 124 HVAC ON INFILTRATION,INFILTRATION HVAC ON SCHEDULE,THERMAL ZONE 9,85.00,0.0,1.037E-002,1.220E-004,6.199E-005,0.144,0.107,1.199E-002,0.000,1.348E-002
! <AirFlow Model>, Simple
 AirFlow Model, Simple
! <RoomAir Model>, Zone Name, Mixing/Mundt/UCSDDV/UCSDCV/UCSDUFI/UCSDUFE/User Defined
RoomAir Model,THERMAL ZONE 1,Mixing/Well-Stirred
RoomAir Model,THERMAL ZONE 10,Mixing/Well-Stirred
RoomAir Model,THERMAL ZONE 11,Mixing/Well-Stirred
RoomAir Model,THERMAL ZONE 12,Mixing/Well-Stirred
RoomAir Model,THERMAL ZONE 13,Mixing/Well-Stirred
RoomAir Model,THERMAL ZONE 14,Mixing/Well-Stirred
RoomAir Model,THERMAL ZONE 15,Mixing/Well-Stirred
RoomAir Model,THERMAL ZONE 16,Mixing/Well-Stirred
RoomAir Model,THERMAL ZONE 17,Mixing/Well-Stirred
RoomAir Model,THERMAL ZONE 18,Mixing/Well-Stirred
RoomAir Model,THERMAL ZONE 19,Mixing/Well-Stirred
RoomAir Model,THERMAL ZONE 2,Mixing/Well-Stirred
RoomAir Model,THERMAL ZONE 20,Mixing/Well-Stirred
RoomAir Model,THERMAL ZONE 21,Mixing/Well-Stirred
RoomAir Model,THERMAL ZONE 22,Mixing/Well-Stirred
RoomAir Model,THERMAL ZONE 23,Mixing/Well-Stirred
RoomAir Model,THERMAL ZONE 24,Mixing/Well-Stirred
RoomAir Model,THERMAL ZONE 25,Mixing/Well-Stirred
RoomAir Model,THERMAL ZONE 26,Mixing/Well-Stirred
RoomAir Model,THERMAL ZONE 27,Mixing/Well-Stirred
RoomAir Model,THERMAL ZONE 28,Mixing/Well-Stirred
RoomAir Model,THERMAL ZONE 3,Mixing/Well-Stirred
RoomAir Model,THERMAL ZONE 4,Mixing/Well-Stirred
RoomAir Model,THERMAL ZONE 5,Mixing/Well-Stirred
RoomAir Model,THERMAL ZONE 6,Mixing/Well-Stirred
RoomAir Model,THERMAL ZONE 7,Mixing/Well-Stirred
RoomAir Model,THERMAL ZONE 8,Mixing/Well-Stirred
RoomAir Model,THERMAL ZONE 9,Mixing/Well-Stirred
! <AirflowNetwork Model:Control>, No Multizone or Distribution/Multizone with Distribution/Multizone without Distribution/Multizone with Distribution only during Fan Operation
AirflowNetwork Model:Control,NoMultizoneOrDistribution
! <Zone Volume Capacitance Multiplier>, Sensible Heat Capacity Multiplier, Moisture Capacity Multiplier, Carbon Dioxide Capacity Multiplier, Generic Contaminant Capacity Multiplier
Zone Volume Capacitance Multiplier,   1.000 ,   1.000,   1.000,   1.000
! <Load Timesteps in Zone Design Calculation Averaging Window>, Value
 Load Timesteps in Zone Design Calculation Averaging Window,    6
! <Heating Sizing Factor Information>, Sizing Factor ID, Value
 Heating Sizing Factor Information, Global,   1.2500    
 Heating Sizing Factor Information, Zone THERMAL ZONE 1,   1.2500    
 Heating Sizing Factor Information, Zone THERMAL ZONE 10,   1.2500    
 Heating Sizing Factor Information, Zone THERMAL ZONE 11,   1.2500    
 Heating Sizing Factor Information, Zone THERMAL ZONE 12,   1.2500    
 Heating Sizing Factor Information, Zone THERMAL ZONE 13,   1.2500    
 Heating Sizing Factor Information, Zone THERMAL ZONE 14,   1.2500    
 Heating Sizing Factor Information, Zone THERMAL ZONE 15,   1.2500    
 Heating Sizing Factor Information, Zone THERMAL ZONE 16,   1.2500    
 Heating Sizing Factor Information, Zone THERMAL ZONE 17,   1.2500    
 Heating Sizing Factor Information, Zone THERMAL ZONE 18,   1.2500    
 Heating Sizing Factor Information, Zone THERMAL ZONE 19,   1.2500    
 Heating Sizing Factor Information, Zone THERMAL ZONE 2,   1.2500    
 Heating Sizing Factor Information, Zone THERMAL ZONE 20,   1.2500    
 Heating Sizing Factor Information, Zone THERMAL ZONE 21,   1.2500    
 Heating Sizing Factor Information, Zone THERMAL ZONE 22,   1.2500    
 Heating Sizing Factor Information, Zone THERMAL ZONE 23,   1.2500    
 Heating Sizing Factor Information, Zone THERMAL ZONE 24,   1.2500    
 Heating Sizing Factor Information, Zone THERMAL ZONE 25,   1.2500    
 Heating Sizing Factor Information, Zone THERMAL ZONE 26,   1.2500    
 Heating Sizing Factor Information, Zone THERMAL ZONE 27,   1.2500    
 Heating Sizing Factor Information, Zone THERMAL ZONE 28,   1.2500    
 Heating Sizing Factor Information, Zone THERMAL ZONE 3,   1.2500    
 Heating Sizing Factor Information, Zone THERMAL ZONE 4,   1.2500    
 Heating Sizing Factor Information, Zone THERMAL ZONE 5,   1.2500    
 Heating Sizing Factor Information, Zone THERMAL ZONE 6,   1.2500    
 Heating Sizing Factor Information, Zone THERMAL ZONE 7,   1.2500    
 Heating Sizing Factor Information, Zone THERMAL ZONE 8,   1.2500    
 Heating Sizing Factor Information, Zone THERMAL ZONE 9,   1.2500    
! <Cooling Sizing Factor Information>, Sizing Factor ID, Value
 Cooling Sizing Factor Information, Global,   1.1500    
 Cooling Sizing Factor Information, Zone THERMAL ZONE 1,   1.1500    
 Cooling Sizing Factor Information, Zone THERMAL ZONE 10,   1.1500    
 Cooling Sizing Factor Information, Zone THERMAL ZONE 11,   1.1500    
 Cooling Sizing Factor Information, Zone THERMAL ZONE 12,   1.1500    
 Cooling Sizing Factor Information, Zone THERMAL ZONE 13,   1.1500    
 Cooling Sizing Factor Information, Zone THERMAL ZONE 14,   1.1500    
 Cooling Sizing Factor Information, Zone THERMAL ZONE 15,   1.1500    
 Cooling Sizing Factor Information, Zone THERMAL ZONE 16,   1.1500    
 Cooling Sizing Factor Information, Zone THERMAL ZONE 17,   1.1500    
 Cooling Sizing Factor Information, Zone THERMAL ZONE 18,   1.1500    
 Cooling Sizing Factor Information, Zone THERMAL ZONE 19,   1.1500    
 Cooling Sizing Factor Information, Zone THERMAL ZONE 2,   1.1500    
 Cooling Sizing Factor Information, Zone THERMAL ZONE 20,   1.1500    
 Cooling Sizing Factor Information, Zone THERMAL ZONE 21,   1.1500    
 Cooling Sizing Factor Information, Zone THERMAL ZONE 22,   1.1500    
 Cooling Sizing Factor Information, Zone THERMAL ZONE 23,   1.1500    
 Cooling Sizing Factor Information, Zone THERMAL ZONE 24,   1.1500    
 Cooling Sizing Factor Information, Zone THERMAL ZONE 25,   1.1500    
 Cooling Sizing Factor Information, Zone THERMAL ZONE 26,   1.1500    
 Cooling Sizing Factor Information, Zone THERMAL ZONE 27,   1.1500    
 Cooling Sizing Factor Information, Zone THERMAL ZONE 28,   1.1500    
 Cooling Sizing Factor Information, Zone THERMAL ZONE 3,   1.1500    
 Cooling Sizing Factor Information, Zone THERMAL ZONE 4,   1.1500    
 Cooling Sizing Factor Information, Zone THERMAL ZONE 5,   1.1500    
 Cooling Sizing Factor Information, Zone THERMAL ZONE 6,   1.1500    
 Cooling Sizing Factor Information, Zone THERMAL ZONE 7,   1.1500    
 Cooling Sizing Factor Information, Zone THERMAL ZONE 8,   1.1500    
 Cooling Sizing Factor Information, Zone THERMAL ZONE 9,   1.1500    
! <Zone Sizing Information>, Zone Name, Load Type, Calc Des Load {W}, User Des Load {W}, Calc Des Air Flow Rate {m3/s}, User Des Air Flow Rate {m3/s}, Design Day Name, Date/Time of Peak, Temperature at Peak {C}, Humidity Ratio at Peak {kgWater/kgDryAir}, Floor Area {m2}, # Occupants, Calc Outdoor Air Flow Rate {m3/s}, Calc DOAS Heat Addition Rate {W}
 Zone Sizing Information, THERMAL ZONE 1, Cooling, 1542.92842, 1774.36768, 0.12487, 0.14361, MONTREAL INT'L ANN CLG .4% CONDNS DB=>MWB, 7/21 18:00:00, 27.76800, 1.35588E-002, 85.00000, 0.00000, 0.00000, 0.00000
 Zone Sizing Information, THERMAL ZONE 1, Heating, 3820.29549, 4775.36936, 0.16333, 0.20416, MONTREAL INT'L ANN HTG 99.6% CONDNS DB, 1/21 08:00:00, -23.70000, 4.44277E-004, 85.00000, 0.00000, 0.00000, 0.00000
 Zone Sizing Information, THERMAL ZONE 10, Cooling, 2139.14384, 2460.01542, 0.17331, 0.19930, MONTREAL INT'L ANN CLG .4% CONDNS DB=>MWB, 7/21 18:00:00, 27.76800, 1.35588E-002, 85.00000, 0.00000, 0.00000, 0.00000
 Zone Sizing Information, THERMAL ZONE 10, Heating, 4821.59135, 6026.98919, 0.20629, 0.25786, MONTREAL INT'L ANN HTG 99.6% CONDNS DB, 1/21 08:00:00, -23.70000, 4.44277E-004, 85.00000, 0.00000, 0.00000, 0.00000
 Zone Sizing Information, THERMAL ZONE 11, Cooling, 2078.26140, 2390.00061, 0.16835, 0.19360, MONTREAL INT'L ANN CLG .4% CONDNS DB=>MWB, 7/21 18:00:00, 27.76800, 1.35588E-002, 85.00000, 0.00000, 0.00000, 0.00000
 Zone Sizing Information, THERMAL ZONE 11, Heating, 4999.75985, 6249.69981, 0.21393, 0.26742, MONTREAL INT'L ANN HTG 99.6% CONDNS DB, 1/21 08:00:00, -23.70000, 4.44277E-004, 85.00000, 0.00000, 0.00000, 0.00000
 Zone Sizing Information, THERMAL ZONE 12, Cooling, 68041.19959, 78247.37952, 5.35727, 6.16086, MONTREAL INT'L ANN CLG .4% CONDNS DB=>MWB, 7/21 17:40:00, 28.07800, 1.35593E-002, 66.00000, 0.00000, 0.00000, 0.00000
 Zone Sizing Information, THERMAL ZONE 12, Heating, 86954.18998, 108692.73747, 3.72617, 4.65772, MONTREAL INT'L ANN HTG 99.6% CONDNS DB, 1/21 08:00:00, -23.70000, 4.44277E-004, 66.00000, 0.00000, 0.00000, 0.00000
 Zone Sizing Information, THERMAL ZONE 13, Cooling, 2865.63003, 3295.47454, 0.23228, 0.26712, MONTREAL INT'L ANN CLG .4% CONDNS DB=>MWB, 7/21 18:00:00, 27.76800, 1.35588E-002, 80.00000, 0.00000, 0.00000, 0.00000
 Zone Sizing Information, THERMAL ZONE 13, Heating, 5870.16685, 7337.70857, 0.25127, 0.31409, MONTREAL INT'L ANN HTG 99.6% CONDNS DB, 1/21 08:00:00, -23.70000, 4.44277E-004, 80.00000, 0.00000, 0.00000, 0.00000
 Zone Sizing Information, THERMAL ZONE 14, Cooling, 23496.51061, 27020.98720, 1.74530, 2.00710, MONTREAL INT'L ANN CLG .4% CONDNS DB=>MWB, 7/21 15:10:00, 29.90700, 1.35626E-002, 80.00000, 0.00000, 0.00000, 0.00000
 Zone Sizing Information, THERMAL ZONE 14, Heating, 53325.65297, 66657.06622, 2.28247, 2.85309, MONTREAL INT'L ANN HTG 99.6% CONDNS DB, 1/21 08:00:00, -23.70000, 4.44277E-004, 80.00000, 0.00000, 0.00000, 0.00000
 Zone Sizing Information, THERMAL ZONE 15, Cooling, 25897.11359, 29781.68063, 2.09893, 2.41377, MONTREAL INT'L ANN CLG .4% CONDNS DB=>MWB, 7/21 18:00:00, 27.76800, 1.35588E-002, 85.00000, 0.00000, 0.00000, 0.00000
 Zone Sizing Information, THERMAL ZONE 15, Heating, 52862.28583, 66077.85728, 2.26223, 2.82779, MONTREAL INT'L ANN HTG 99.6% CONDNS DB, 1/21 08:00:00, -23.70000, 4.44277E-004, 85.00000, 0.00000, 0.00000, 0.00000
 Zone Sizing Information, THERMAL ZONE 16, Cooling, 26559.99826, 30543.99799, 2.15297, 2.47592, MONTREAL INT'L ANN CLG .4% CONDNS DB=>MWB, 7/21 18:00:00, 27.76800, 1.35588E-002, 80.00000, 0.00000, 0.00000, 0.00000
 Zone Sizing Information, THERMAL ZONE 16, Heating, 51367.42622, 64209.28278, 2.19844, 2.74806, MONTREAL INT'L ANN HTG 99.6% CONDNS DB, 1/21 08:00:00, -23.70000, 4.44277E-004, 80.00000, 0.00000, 0.00000, 0.00000
 Zone Sizing Information, THERMAL ZONE 17, Cooling, 22262.78603, 25602.20393, 1.65366, 1.90171, MONTREAL INT'L ANN CLG .4% CONDNS DB=>MWB, 7/21 15:10:00, 29.90700, 1.35626E-002, 80.00000, 0.00000, 0.00000, 0.00000
 Zone Sizing Information, THERMAL ZONE 17, Heating, 51301.22988, 64126.53736, 2.19560, 2.74451, MONTREAL INT'L ANN HTG 99.6% CONDNS DB, 1/21 08:00:00, -23.70000, 4.44277E-004, 80.00000, 0.00000, 0.00000, 0.00000
 Zone Sizing Information, THERMAL ZONE 18, Cooling, 2795.62102, 3214.96417, 0.20766, 0.23881, MONTREAL INT'L ANN CLG .4% CONDNS DB=>MWB, 7/21 15:00:00, 30.00000, 1.35628E-002, 80.00000, 0.00000, 0.00000, 0.00000
 Zone Sizing Information, THERMAL ZONE 18, Heating, 6158.66503, 7698.33128, 0.26365, 0.32956, MONTREAL INT'L ANN HTG 99.6% CONDNS DB, 1/21 08:00:00, -23.70000, 4.44277E-004, 80.00000, 0.00000, 0.00000, 0.00000
 Zone Sizing Information, THERMAL ZONE 19, Cooling, 20580.64971, 23667.74717, 1.52872, 1.75802, MONTREAL INT'L ANN CLG .4% CONDNS DB=>MWB, 7/21 15:20:00, 29.81400, 1.35624E-002, 85.00000, 0.00000, 0.00000, 0.00000
 Zone Sizing Information, THERMAL ZONE 19, Heating, 52887.62776, 66109.53470, 2.26332, 2.82915, MONTREAL INT'L ANN HTG 99.6% CONDNS DB, 1/21 08:00:00, -23.70000, 4.44277E-004, 85.00000, 0.00000, 0.00000, 0.00000
 Zone Sizing Information, THERMAL ZONE 2, Cooling, 10175.95258, 11702.34547, 0.82234, 0.94569, MONTREAL INT'L ANN CLG .4% CONDNS DB=>MWB, 7/21 18:00:00, 27.76800, 1.35588E-002, 726.00000, 0.00000, 0.00000, 0.00000
 Zone Sizing Information, THERMAL ZONE 2, Heating, 22567.81745, 28209.77181, 0.96291, 1.20363, MONTREAL INT'L ANN HTG 99.6% CONDNS DB, 1/21 08:00:00, -23.70000, 4.44277E-004, 726.00000, 0.00000, 0.00000, 0.00000
 Zone Sizing Information, THERMAL ZONE 20, Cooling, 27276.06531, 31367.47510, 2.21111, 2.54278, MONTREAL INT'L ANN CLG .4% CONDNS DB=>MWB, 7/21 18:00:00, 27.76800, 1.35588E-002, 80.00000, 0.00000, 0.00000, 0.00000
 Zone Sizing Information, THERMAL ZONE 20, Heating, 53306.50816, 66633.13520, 2.28165, 2.85207, MONTREAL INT'L ANN HTG 99.6% CONDNS DB, 1/21 08:00:00, -23.70000, 4.44277E-004, 80.00000, 0.00000, 0.00000, 0.00000
 Zone Sizing Information, THERMAL ZONE 21, Cooling, 23444.43756, 26961.10319, 1.89972, 2.18467, MONTREAL INT'L ANN CLG .4% CONDNS DB=>MWB, 7/21 18:00:00, 27.76800, 1.35588E-002, 85.00000, 0.00000, 0.00000, 0.00000
 Zone Sizing Information, THERMAL ZONE 21, Heating, 41985.23080, 52481.53850, 1.79556, 2.24445, MONTREAL INT'L ANN HTG 99.6% CONDNS DB, 1/21 08:00:00, -23.70000, 4.44277E-004, 85.00000, 0.00000, 0.00000, 0.00000
 Zone Sizing Information, THERMAL ZONE 22, Cooling, 18178.34944, 20905.10185, 1.35026, 1.55280, MONTREAL INT'L ANN CLG .4% CONDNS DB=>MWB, 7/21 15:10:00, 29.90700, 1.35626E-002, 85.00000, 0.00000, 0.00000, 0.00000
 Zone Sizing Information, THERMAL ZONE 22, Heating, 42013.98828, 52517.48535, 1.79679, 2.24599, MONTREAL INT'L ANN HTG 99.6% CONDNS DB, 1/21 08:00:00, -23.70000, 4.44277E-004, 85.00000, 0.00000, 0.00000, 0.00000
 Zone Sizing Information, THERMAL ZONE 23, Cooling, 7421.33669, 8534.53719, 0.58474, 0.67245, MONTREAL INT'L ANN CLG .4% CONDNS DB=>MWB, 7/21 17:40:00, 28.07800, 1.35593E-002, 132.00000, 0.00000, 0.00000, 0.00000
 Zone Sizing Information, THERMAL ZONE 23, Heating, 9921.54686, 12401.93357, 0.42473, 0.53091, MONTREAL INT'L ANN HTG 99.6% CONDNS DB, 1/21 08:00:00, -23.70000, 4.44277E-004, 132.00000, 0.00000, 0.00000, 0.00000
 Zone Sizing Information, THERMAL ZONE 24, Cooling, 2692.71023, 3096.61677, 0.20002, 0.23002, MONTREAL INT'L ANN CLG .4% CONDNS DB=>MWB, 7/21 15:00:00, 30.00000, 1.35628E-002, 80.00000, 0.00000, 0.00000, 0.00000
 Zone Sizing Information, THERMAL ZONE 24, Heating, 5864.13941, 7330.17427, 0.25101, 0.31377, MONTREAL INT'L ANN HTG 99.6% CONDNS DB, 1/21 08:00:00, -23.70000, 4.44277E-004, 80.00000, 0.00000, 0.00000, 0.00000
 Zone Sizing Information, THERMAL ZONE 25, Cooling, 2927.89438, 3367.07854, 0.23733, 0.27293, MONTREAL INT'L ANN CLG .4% CONDNS DB=>MWB, 7/21 18:00:00, 27.76800, 1.35588E-002, 80.00000, 0.00000, 0.00000, 0.00000
 Zone Sizing Information, THERMAL ZONE 25, Heating, 6156.82587, 7696.03234, 0.26357, 0.32947, MONTREAL INT'L ANN HTG 99.6% CONDNS DB, 1/21 08:00:00, -23.70000, 4.44277E-004, 80.00000, 0.00000, 0.00000, 0.00000
 Zone Sizing Information, THERMAL ZONE 26, Cooling, 2955.60847, 3398.94974, 0.23956, 0.27550, MONTREAL INT'L ANN CLG .4% CONDNS DB=>MWB, 7/21 18:00:00, 27.76800, 1.35588E-002, 85.00000, 0.00000, 0.00000, 0.00000
 Zone Sizing Information, THERMAL ZONE 26, Heating, 6074.98243, 7593.72804, 0.26002, 0.32503, MONTREAL INT'L ANN HTG 99.6% CONDNS DB, 1/21 08:00:00, -23.70000, 4.44277E-004, 85.00000, 0.00000, 0.00000, 0.00000
 Zone Sizing Information, THERMAL ZONE 27, Cooling, 2742.44413, 3153.81075, 0.20371, 0.23427, MONTREAL INT'L ANN CLG .4% CONDNS DB=>MWB, 7/21 15:00:00, 30.00000, 1.35628E-002, 85.00000, 0.00000, 0.00000, 0.00000
 Zone Sizing Information, THERMAL ZONE 27, Heating, 6077.28362, 7596.60452, 0.26012, 0.32515, MONTREAL INT'L ANN HTG 99.6% CONDNS DB, 1/21 08:00:00, -23.70000, 4.44277E-004, 85.00000, 0.00000, 0.00000, 0.00000
 Zone Sizing Information, THERMAL ZONE 28, Cooling, 2388.08713, 2746.30020, 0.17739, 0.20400, MONTREAL INT'L ANN CLG .4% CONDNS DB=>MWB, 7/21 15:00:00, 30.00000, 1.35628E-002, 85.00000, 0.00000, 0.00000, 0.00000
 Zone Sizing Information, THERMAL ZONE 28, Heating, 5009.13625, 6261.42032, 0.21430, 0.26788, MONTREAL INT'L ANN HTG 99.6% CONDNS DB, 1/21 08:00:00, -23.70000, 4.44277E-004, 85.00000, 0.00000, 0.00000, 0.00000
 Zone Sizing Information, THERMAL ZONE 3, Cooling, 2277.80975, 2619.48122, 0.18459, 0.21228, MONTREAL INT'L ANN CLG .4% CONDNS DB=>MWB, 7/21 18:00:00, 27.76800, 1.35588E-002, 80.00000, 0.00000, 0.00000, 0.00000
 Zone Sizing Information, THERMAL ZONE 3, Heating, 4853.06614, 6066.33267, 0.20768, 0.25960, MONTREAL INT'L ANN HTG 99.6% CONDNS DB, 1/21 08:00:00, -23.70000, 4.44277E-004, 80.00000, 0.00000, 0.00000, 0.00000
 Zone Sizing Information, THERMAL ZONE 4, Cooling, 5871.35363, 6752.05667, 0.46933, 0.53973, MONTREAL INT'L ANN CLG .4% CONDNS DB=>MWB, 7/21 17:50:00, 27.92300, 1.35591E-002, 66.00000, 0.00000, 0.00000, 0.00000
 Zone Sizing Information, THERMAL ZONE 4, Heating, 8249.30403, 10311.63004, 0.35349, 0.44186, MONTREAL INT'L ANN HTG 99.6% CONDNS DB, 1/21 08:00:00, -23.70000, 4.44277E-004, 66.00000, 0.00000, 0.00000, 0.00000
 Zone Sizing Information, THERMAL ZONE 5, Cooling, 2328.94660, 2678.28859, 0.18872, 0.21702, MONTREAL INT'L ANN CLG .4% CONDNS DB=>MWB, 7/21 18:00:00, 27.76800, 1.35588E-002, 80.00000, 0.00000, 0.00000, 0.00000
 Zone Sizing Information, THERMAL ZONE 5, Heating, 5309.05629, 6636.32036, 0.22721, 0.28401, MONTREAL INT'L ANN HTG 99.6% CONDNS DB, 1/21 08:00:00, -23.70000, 4.44277E-004, 80.00000, 0.00000, 0.00000, 0.00000
 Zone Sizing Information, THERMAL ZONE 6, Cooling, 1911.08040, 2197.74246, 0.14195, 0.16324, MONTREAL INT'L ANN CLG .4% CONDNS DB=>MWB, 7/21 15:00:00, 30.00000, 1.35628E-002, 80.00000, 0.00000, 0.00000, 0.00000
 Zone Sizing Information, THERMAL ZONE 6, Heating, 4854.25892, 6067.82364, 0.20773, 0.25966, MONTREAL INT'L ANN HTG 99.6% CONDNS DB, 1/21 08:00:00, -23.70000, 4.44277E-004, 80.00000, 0.00000, 0.00000, 0.00000
 Zone Sizing Information, THERMAL ZONE 7, Cooling, 1801.85044, 2072.12800, 0.13384, 0.15391, MONTREAL INT'L ANN CLG .4% CONDNS DB=>MWB, 7/21 15:10:00, 29.90700, 1.35626E-002, 80.00000, 0.00000, 0.00000, 0.00000
 Zone Sizing Information, THERMAL ZONE 7, Heating, 4682.41125, 5853.01407, 0.20035, 0.25044, MONTREAL INT'L ANN HTG 99.6% CONDNS DB, 1/21 08:00:00, -23.70000, 4.44277E-004, 80.00000, 0.00000, 0.00000, 0.00000
 Zone Sizing Information, THERMAL ZONE 8, Cooling, 1710.28357, 1966.82610, 0.13846, 0.15923, MONTREAL INT'L ANN CLG .4% CONDNS DB=>MWB, 7/21 18:00:00, 27.76800, 1.35588E-002, 85.00000, 0.00000, 0.00000, 0.00000
 Zone Sizing Information, THERMAL ZONE 8, Heating, 4823.13861, 6028.92326, 0.20636, 0.25794, MONTREAL INT'L ANN HTG 99.6% CONDNS DB, 1/21 08:00:00, -23.70000, 4.44277E-004, 85.00000, 0.00000, 0.00000, 0.00000
 Zone Sizing Information, THERMAL ZONE 9, Cooling, 2678.53186, 3080.31164, 0.21707, 0.24963, MONTREAL INT'L ANN CLG .4% CONDNS DB=>MWB, 7/21 18:00:00, 27.76800, 1.35588E-002, 85.00000, 0.00000, 0.00000, 0.00000
 Zone Sizing Information, THERMAL ZONE 9, Heating, 5006.78429, 6258.48036, 0.21420, 0.26775, MONTREAL INT'L ANN HTG 99.6% CONDNS DB, 1/21 08:00:00, -23.70000, 4.44277E-004, 85.00000, 0.00000, 0.00000, 0.00000
! <Component Sizing Information>, Component Type, Component Name, Input Field Description, Value
 Component Sizing Information, ZONEHVAC:BASEBOARD:CONVECTIVE:ELECTRIC, ELEC BASEBOARD, Design Size Heating Design Capacity [W], 4775.36936
 Component Sizing Information, ZoneHVAC:PackagedTerminalHeatPump, PTHP, Design Size Cooling Supply Air Flow Rate [m3/s], 0.20416
 Component Sizing Information, ZoneHVAC:PackagedTerminalHeatPump, PTHP, Design Size Heating Supply Air Flow Rate [m3/s], 0.20416
 Component Sizing Information, ZoneHVAC:PackagedTerminalHeatPump, PTHP, User-Specified Heating Supply Air Flow Rate [m3/s], 2.22045E-016
 Component Sizing Information, ZoneHVAC:PackagedTerminalHeatPump, PTHP, Design Size No Load Supply Air Flow Rate [m3/s], 0.20416
 Component Sizing Information, ZoneHVAC:PackagedTerminalHeatPump, PTHP, Design Size Outdoor Air Flow Rate During Cooling Operation [m3/s], 0.00000
 Component Sizing Information, ZoneHVAC:PackagedTerminalHeatPump, PTHP, Design Size Outdoor Air Flow Rate During Heating Operation [m3/s], 0.00000
 Component Sizing Information, ZoneHVAC:PackagedTerminalHeatPump, PTHP, Design Size Outdoor Air Flow Rate When No Cooling or Heating is Needed [m3/s], 0.00000
 Component Sizing Information, ZoneHVAC:PackagedTerminalHeatPump, PTHP, Design Size Maximum Supply Air Temperature from Supplemental Heater [C], 40.00000
 Component Sizing Information, Coil:Cooling:DX:SingleSpeed, PTHP 1 SPD DX CLG COIL, Design Size Rated Air Flow Rate [m3/s], 0.20416
 Component Sizing Information, Coil:Cooling:DX:SingleSpeed, PTHP 1 SPD DX CLG COIL, Design Size Gross Rated Total Cooling Capacity [W], 3379.55825
 Component Sizing Information, Coil:Cooling:DX:SingleSpeed, PTHP 1 SPD DX CLG COIL, Design Size Gross Rated Sensible Heat Ratio, 0.80066
! <DX Cooling Coil Standard Rating Information>, Component Type, Component Name, Standard Rating (Net) Cooling Capacity {W}, Standard Rated Net COP {W/W}, EER {Btu/W-h}, SEER User {Btu/W-h}, SEER Standard {Btu/W-h}, IEER {Btu/W-h}
 DX Cooling Coil Standard Rating Information, Coil:Cooling:DX:SingleSpeed, PTHP 1 SPD DX CLG COIL, 3230.2, 2.53, 8.64, 8.70, 8.60, 8.70
 DX Cooling Coil Standard Rating Information, Coil:Cooling:DX:SingleSpeed, PTHP 1 SPD DX CLG COIL, 3197.3, 2.44, 8.34, 8.38, 8.52,  
 Component Sizing Information, Coil:Heating:DX:SingleSpeed, PTHP 1 SPD DX HTG COIL, Design Size Rated Air Flow Rate [m3/s], 0.20416
 Component Sizing Information, Coil:Heating:DX:SingleSpeed, PTHP 1 SPD DX HTG COIL, Design Size Gross Rated Heating Capacity [W], 3379.55825
 Component Sizing Information, Coil:Heating:DX:SingleSpeed, PTHP 1 SPD DX HTG COIL, User-Specified Gross Rated Heating Capacity [W], 2.22045E-016
 Component Sizing Information, Coil:Heating:DX:SingleSpeed, PTHP 1 SPD DX HTG COIL, Design Size Resistive Defrost Heater Capacity [W], 3379.55825
 Component Sizing Information, Coil:Heating:DX:SingleSpeed, PTHP 1 SPD DX HTG COIL, User-Specified Resistive Defrost Heater Capacity [W], 2000.00000
! <DX Heating Coil Standard Rating Information>, Component Type, Component Name, High Temperature Heating (net) Rating Capacity {W}, Low Temperature Heating (net) Rating Capacity {W}, HSPF {Btu/W-h}, Region Number
 DX Heating Coil Standard Rating Information, Coil:Heating:DX:SingleSpeed, PTHP 1 SPD DX HTG COIL, 157.9, 157.9, 3.40, 4
 DX Heating Coil Standard Rating Information, Coil:Heating:DX:SingleSpeed, PTHP 1 SPD DX HTG COIL, 190.8, 190.8, 3.07, 4
 Component Sizing Information, Fan:ConstantVolume, PTHP CV FAN, Design Size Maximum Flow Rate [m3/s], 0.20416
 Component Sizing Information, Coil:Heating:Electric, PTHP ELEC HTG BACKUP COIL, Design Size Nominal Capacity [W], 4743.74620
 Component Sizing Information, ZONEHVAC:BASEBOARD:CONVECTIVE:ELECTRIC, ELEC BASEBOARD 4, Design Size Heating Design Capacity [W], 6026.98919
 Component Sizing Information, ZoneHVAC:PackagedTerminalHeatPump, PTHP 4, Design Size Cooling Supply Air Flow Rate [m3/s], 0.25786
 Component Sizing Information, ZoneHVAC:PackagedTerminalHeatPump, PTHP 4, Design Size Heating Supply Air Flow Rate [m3/s], 0.25786
 Component Sizing Information, ZoneHVAC:PackagedTerminalHeatPump, PTHP 4, User-Specified Heating Supply Air Flow Rate [m3/s], 2.22045E-016
 Component Sizing Information, ZoneHVAC:PackagedTerminalHeatPump, PTHP 4, Design Size No Load Supply Air Flow Rate [m3/s], 0.25786
 Component Sizing Information, ZoneHVAC:PackagedTerminalHeatPump, PTHP 4, Design Size Outdoor Air Flow Rate During Cooling Operation [m3/s], 0.00000
 Component Sizing Information, ZoneHVAC:PackagedTerminalHeatPump, PTHP 4, Design Size Outdoor Air Flow Rate During Heating Operation [m3/s], 0.00000
 Component Sizing Information, ZoneHVAC:PackagedTerminalHeatPump, PTHP 4, Design Size Outdoor Air Flow Rate When No Cooling or Heating is Needed [m3/s], 0.00000
 Component Sizing Information, ZoneHVAC:PackagedTerminalHeatPump, PTHP 4, Design Size Maximum Supply Air Temperature from Supplemental Heater [C], 40.00000
 Component Sizing Information, Coil:Cooling:DX:SingleSpeed, PTHP 1 SPD DX CLG COIL 4, Design Size Rated Air Flow Rate [m3/s], 0.25786
 Component Sizing Information, Coil:Cooling:DX:SingleSpeed, PTHP 1 SPD DX CLG COIL 4, Design Size Gross Rated Total Cooling Capacity [W], 4268.52023
 Component Sizing Information, Coil:Cooling:DX:SingleSpeed, PTHP 1 SPD DX CLG COIL 4, Design Size Gross Rated Sensible Heat Ratio, 0.80066
 DX Cooling Coil Standard Rating Information, Coil:Cooling:DX:SingleSpeed, PTHP 1 SPD DX CLG COIL 4, 4079.9, 2.53, 8.64, 8.70, 8.60, 8.70
 DX Cooling Coil Standard Rating Information, Coil:Cooling:DX:SingleSpeed, PTHP 1 SPD DX CLG COIL 4, 4038.3, 2.44, 8.34, 8.38, 8.52,  
 Component Sizing Information, Coil:Heating:DX:SingleSpeed, PTHP 1 SPD DX HTG COIL 4, Design Size Rated Air Flow Rate [m3/s], 0.25786
 Component Sizing Information, Coil:Heating:DX:SingleSpeed, PTHP 1 SPD DX HTG COIL 4, Design Size Gross Rated Heating Capacity [W], 4268.52023
 Component Sizing Information, Coil:Heating:DX:SingleSpeed, PTHP 1 SPD DX HTG COIL 4, User-Specified Gross Rated Heating Capacity [W], 2.22045E-016
 Component Sizing Information, Coil:Heating:DX:SingleSpeed, PTHP 1 SPD DX HTG COIL 4, Design Size Resistive Defrost Heater Capacity [W], 4268.52023
 Component Sizing Information, Coil:Heating:DX:SingleSpeed, PTHP 1 SPD DX HTG COIL 4, User-Specified Resistive Defrost Heater Capacity [W], 2000.00000
 DX Heating Coil Standard Rating Information, Coil:Heating:DX:SingleSpeed, PTHP 1 SPD DX HTG COIL 4, 199.4, 199.4, 3.39, 4
 DX Heating Coil Standard Rating Information, Coil:Heating:DX:SingleSpeed, PTHP 1 SPD DX HTG COIL 4, 240.9, 240.9, 3.07, 4
 Component Sizing Information, Fan:ConstantVolume, PTHP CV FAN 4, Design Size Maximum Flow Rate [m3/s], 0.25786
 Component Sizing Information, Coil:Heating:Electric, PTHP ELEC HTG BACKUP COIL 4, Design Size Nominal Capacity [W], 5991.68526
 Component Sizing Information, ZONEHVAC:BASEBOARD:CONVECTIVE:ELECTRIC, ELEC BASEBOARD 21, Design Size Heating Design Capacity [W], 6249.69981
 Component Sizing Information, ZoneHVAC:PackagedTerminalHeatPump, PTHP 21, Design Size Cooling Supply Air Flow Rate [m3/s], 0.26742
 Component Sizing Information, ZoneHVAC:PackagedTerminalHeatPump, PTHP 21, Design Size Heating Supply Air Flow Rate [m3/s], 0.26742
 Component Sizing Information, ZoneHVAC:PackagedTerminalHeatPump, PTHP 21, User-Specified Heating Supply Air Flow Rate [m3/s], 2.22045E-016
 Component Sizing Information, ZoneHVAC:PackagedTerminalHeatPump, PTHP 21, Design Size No Load Supply Air Flow Rate [m3/s], 0.26742
 Component Sizing Information, ZoneHVAC:PackagedTerminalHeatPump, PTHP 21, Design Size Outdoor Air Flow Rate During Cooling Operation [m3/s], 0.00000
 Component Sizing Information, ZoneHVAC:PackagedTerminalHeatPump, PTHP 21, Design Size Outdoor Air Flow Rate During Heating Operation [m3/s], 0.00000
 Component Sizing Information, ZoneHVAC:PackagedTerminalHeatPump, PTHP 21, Design Size Outdoor Air Flow Rate When No Cooling or Heating is Needed [m3/s], 0.00000
 Component Sizing Information, ZoneHVAC:PackagedTerminalHeatPump, PTHP 21, Design Size Maximum Supply Air Temperature from Supplemental Heater [C], 40.00000
 Component Sizing Information, Coil:Cooling:DX:SingleSpeed, PTHP 1 SPD DX CLG COIL 21, Design Size Rated Air Flow Rate [m3/s], 0.26742
 Component Sizing Information, Coil:Cooling:DX:SingleSpeed, PTHP 1 SPD DX CLG COIL 21, Design Size Gross Rated Total Cooling Capacity [W], 4426.72685
 Component Sizing Information, Coil:Cooling:DX:SingleSpeed, PTHP 1 SPD DX CLG COIL 21, Design Size Gross Rated Sensible Heat Ratio, 0.80066
 DX Cooling Coil Standard Rating Information, Coil:Cooling:DX:SingleSpeed, PTHP 1 SPD DX CLG COIL 21, 4231.1, 2.53, 8.64, 8.70, 8.60, 8.70
 DX Cooling Coil Standard Rating Information, Coil:Cooling:DX:SingleSpeed, PTHP 1 SPD DX CLG COIL 21, 4188.0, 2.44, 8.34, 8.38, 8.52,  
 Component Sizing Information, Coil:Heating:DX:SingleSpeed, PTHP 1 SPD DX HTG COIL 21, Design Size Rated Air Flow Rate [m3/s], 0.26742
 Component Sizing Information, Coil:Heating:DX:SingleSpeed, PTHP 1 SPD DX HTG COIL 21, Design Size Gross Rated Heating Capacity [W], 4426.72685
 Component Sizing Information, Coil:Heating:DX:SingleSpeed, PTHP 1 SPD DX HTG COIL 21, User-Specified Gross Rated Heating Capacity [W], 2.22045E-016
 Component Sizing Information, Coil:Heating:DX:SingleSpeed, PTHP 1 SPD DX HTG COIL 21, Design Size Resistive Defrost Heater Capacity [W], 4426.72685
 Component Sizing Information, Coil:Heating:DX:SingleSpeed, PTHP 1 SPD DX HTG COIL 21, User-Specified Resistive Defrost Heater Capacity [W], 2000.00000
 DX Heating Coil Standard Rating Information, Coil:Heating:DX:SingleSpeed, PTHP 1 SPD DX HTG COIL 21, 206.8, 206.8, 3.39, 4
 DX Heating Coil Standard Rating Information, Coil:Heating:DX:SingleSpeed, PTHP 1 SPD DX HTG COIL 21, 249.9, 249.9, 3.07, 4
 Component Sizing Information, Fan:ConstantVolume, PTHP CV FAN 21, Design Size Maximum Flow Rate [m3/s], 0.26742
 Component Sizing Information, Coil:Heating:Electric, PTHP ELEC HTG BACKUP COIL 21, Design Size Nominal Capacity [W], 6213.75215
 Component Sizing Information, ZONEHVAC:BASEBOARD:CONVECTIVE:ELECTRIC, ELEC BASEBOARD 8, Design Size Heating Design Capacity [W], 108692.73747
 Component Sizing Information, ZoneHVAC:PackagedTerminalHeatPump, PTHP 8, Design Size Cooling Supply Air Flow Rate [m3/s], 6.16086
 Component Sizing Information, ZoneHVAC:PackagedTerminalHeatPump, PTHP 8, Design Size Heating Supply Air Flow Rate [m3/s], 6.16086
 Component Sizing Information, ZoneHVAC:PackagedTerminalHeatPump, PTHP 8, User-Specified Heating Supply Air Flow Rate [m3/s], 2.22045E-016
 Component Sizing Information, ZoneHVAC:PackagedTerminalHeatPump, PTHP 8, Design Size No Load Supply Air Flow Rate [m3/s], 6.16086
 Component Sizing Information, ZoneHVAC:PackagedTerminalHeatPump, PTHP 8, Design Size Outdoor Air Flow Rate During Cooling Operation [m3/s], 0.00000
 Component Sizing Information, ZoneHVAC:PackagedTerminalHeatPump, PTHP 8, Design Size Outdoor Air Flow Rate During Heating Operation [m3/s], 0.00000
 Component Sizing Information, ZoneHVAC:PackagedTerminalHeatPump, PTHP 8, Design Size Outdoor Air Flow Rate When No Cooling or Heating is Needed [m3/s], 0.00000
 Component Sizing Information, ZoneHVAC:PackagedTerminalHeatPump, PTHP 8, Design Size Maximum Supply Air Temperature from Supplemental Heater [C], 40.00000
 Component Sizing Information, Coil:Cooling:DX:SingleSpeed, PTHP 1 SPD DX CLG COIL 8, Design Size Rated Air Flow Rate [m3/s], 6.16086
 Component Sizing Information, Coil:Cooling:DX:SingleSpeed, PTHP 1 SPD DX CLG COIL 8, Design Size Gross Rated Total Cooling Capacity [W], 101984.13703
 Component Sizing Information, Coil:Cooling:DX:SingleSpeed, PTHP 1 SPD DX CLG COIL 8, Design Size Gross Rated Sensible Heat Ratio, 0.80066
 DX Cooling Coil Standard Rating Information, Coil:Cooling:DX:SingleSpeed, PTHP 1 SPD DX CLG COIL 8, 97476.8, 2.53, 8.64, 8.70, 8.60, 8.70
 DX Cooling Coil Standard Rating Information, Coil:Cooling:DX:SingleSpeed, PTHP 1 SPD DX CLG COIL 8, 96484.2, 2.44, 8.34, 8.38, 8.52,  
 Component Sizing Information, Coil:Heating:DX:SingleSpeed, PTHP 1 SPD DX HTG COIL 8, Design Size Rated Air Flow Rate [m3/s], 6.16086
 Component Sizing Information, Coil:Heating:DX:SingleSpeed, PTHP 1 SPD DX HTG COIL 8, Design Size Gross Rated Heating Capacity [W], 101984.13703
 Component Sizing Information, Coil:Heating:DX:SingleSpeed, PTHP 1 SPD DX HTG COIL 8, User-Specified Gross Rated Heating Capacity [W], 2.22045E-016
 Component Sizing Information, Coil:Heating:DX:SingleSpeed, PTHP 1 SPD DX HTG COIL 8, Design Size Resistive Defrost Heater Capacity [W], 101984.13703
 Component Sizing Information, Coil:Heating:DX:SingleSpeed, PTHP 1 SPD DX HTG COIL 8, User-Specified Resistive Defrost Heater Capacity [W], 2000.00000
 DX Heating Coil Standard Rating Information, Coil:Heating:DX:SingleSpeed, PTHP 1 SPD DX HTG COIL 8, 4764.2, 4764.2, 2.89, 4
 DX Heating Coil Standard Rating Information, Coil:Heating:DX:SingleSpeed, PTHP 1 SPD DX HTG COIL 8, 5756.7, 5756.7, 3.07, 4
 Component Sizing Information, Fan:ConstantVolume, PTHP CV FAN 8, Design Size Maximum Flow Rate [m3/s], 6.16086
 Component Sizing Information, Coil:Heating:Electric, PTHP ELEC HTG BACKUP COIL 8, Design Size Nominal Capacity [W], 108236.24964
 Component Sizing Information, ZONEHVAC:BASEBOARD:CONVECTIVE:ELECTRIC, ELEC BASEBOARD 23, Design Size Heating Design Capacity [W], 7337.70857
 Component Sizing Information, ZoneHVAC:PackagedTerminalHeatPump, PTHP 23, Design Size Cooling Supply Air Flow Rate [m3/s], 0.31409
 Component Sizing Information, ZoneHVAC:PackagedTerminalHeatPump, PTHP 23, Design Size Heating Supply Air Flow Rate [m3/s], 0.31409
 Component Sizing Information, ZoneHVAC:PackagedTerminalHeatPump, PTHP 23, User-Specified Heating Supply Air Flow Rate [m3/s], 2.22045E-016
 Component Sizing Information, ZoneHVAC:PackagedTerminalHeatPump, PTHP 23, Design Size No Load Supply Air Flow Rate [m3/s], 0.31409
 Component Sizing Information, ZoneHVAC:PackagedTerminalHeatPump, PTHP 23, Design Size Outdoor Air Flow Rate During Cooling Operation [m3/s], 0.00000
 Component Sizing Information, ZoneHVAC:PackagedTerminalHeatPump, PTHP 23, Design Size Outdoor Air Flow Rate During Heating Operation [m3/s], 0.00000
 Component Sizing Information, ZoneHVAC:PackagedTerminalHeatPump, PTHP 23, Design Size Outdoor Air Flow Rate When No Cooling or Heating is Needed [m3/s], 0.00000
 Component Sizing Information, ZoneHVAC:PackagedTerminalHeatPump, PTHP 23, Design Size Maximum Supply Air Temperature from Supplemental Heater [C], 40.00000
 Component Sizing Information, Coil:Cooling:DX:SingleSpeed, PTHP 1 SPD DX CLG COIL 23, Design Size Rated Air Flow Rate [m3/s], 0.31409
 Component Sizing Information, Coil:Cooling:DX:SingleSpeed, PTHP 1 SPD DX CLG COIL 23, Design Size Gross Rated Total Cooling Capacity [W], 5199.33528
 Component Sizing Information, Coil:Cooling:DX:SingleSpeed, PTHP 1 SPD DX CLG COIL 23, Design Size Gross Rated Sensible Heat Ratio, 0.80066
 DX Cooling Coil Standard Rating Information, Coil:Cooling:DX:SingleSpeed, PTHP 1 SPD DX CLG COIL 23, 4969.5, 2.53, 8.64, 8.70, 8.60, 8.70
 DX Cooling Coil Standard Rating Information, Coil:Cooling:DX:SingleSpeed, PTHP 1 SPD DX CLG COIL 23, 4918.9, 2.44, 8.34, 8.38, 8.52,  
 Component Sizing Information, Coil:Heating:DX:SingleSpeed, PTHP 1 SPD DX HTG COIL 23, Design Size Rated Air Flow Rate [m3/s], 0.31409
 Component Sizing Information, Coil:Heating:DX:SingleSpeed, PTHP 1 SPD DX HTG COIL 23, Design Size Gross Rated Heating Capacity [W], 5199.33528
 Component Sizing Information, Coil:Heating:DX:SingleSpeed, PTHP 1 SPD DX HTG COIL 23, User-Specified Gross Rated Heating Capacity [W], 2.22045E-016
 Component Sizing Information, Coil:Heating:DX:SingleSpeed, PTHP 1 SPD DX HTG COIL 23, Design Size Resistive Defrost Heater Capacity [W], 5199.33528
 Component Sizing Information, Coil:Heating:DX:SingleSpeed, PTHP 1 SPD DX HTG COIL 23, User-Specified Resistive Defrost Heater Capacity [W], 2000.00000
 DX Heating Coil Standard Rating Information, Coil:Heating:DX:SingleSpeed, PTHP 1 SPD DX HTG COIL 23, 242.9, 242.9, 3.39, 4
 DX Heating Coil Standard Rating Information, Coil:Heating:DX:SingleSpeed, PTHP 1 SPD DX HTG COIL 23, 293.5, 293.5, 3.07, 4
 Component Sizing Information, Fan:ConstantVolume, PTHP CV FAN 23, Design Size Maximum Flow Rate [m3/s], 0.31409
 Component Sizing Information, Coil:Heating:Electric, PTHP ELEC HTG BACKUP COIL 23, Design Size Nominal Capacity [W], 7298.98504
 Component Sizing Information, ZONEHVAC:BASEBOARD:CONVECTIVE:ELECTRIC, ELEC BASEBOARD 16, Design Size Heating Design Capacity [W], 66657.06622
 Component Sizing Information, ZoneHVAC:PackagedTerminalHeatPump, PTHP 16, Design Size Cooling Supply Air Flow Rate [m3/s], 2.85309
 Component Sizing Information, ZoneHVAC:PackagedTerminalHeatPump, PTHP 16, Design Size Heating Supply Air Flow Rate [m3/s], 2.85309
 Component Sizing Information, ZoneHVAC:PackagedTerminalHeatPump, PTHP 16, User-Specified Heating Supply Air Flow Rate [m3/s], 2.22045E-016
 Component Sizing Information, ZoneHVAC:PackagedTerminalHeatPump, PTHP 16, Design Size No Load Supply Air Flow Rate [m3/s], 2.85309
 Component Sizing Information, ZoneHVAC:PackagedTerminalHeatPump, PTHP 16, Design Size Outdoor Air Flow Rate During Cooling Operation [m3/s], 0.00000
 Component Sizing Information, ZoneHVAC:PackagedTerminalHeatPump, PTHP 16, Design Size Outdoor Air Flow Rate During Heating Operation [m3/s], 0.00000
 Component Sizing Information, ZoneHVAC:PackagedTerminalHeatPump, PTHP 16, Design Size Outdoor Air Flow Rate When No Cooling or Heating is Needed [m3/s], 0.00000
 Component Sizing Information, ZoneHVAC:PackagedTerminalHeatPump, PTHP 16, Design Size Maximum Supply Air Temperature from Supplemental Heater [C], 40.00000
 Component Sizing Information, Coil:Cooling:DX:SingleSpeed, PTHP 1 SPD DX CLG COIL 16, Design Size Rated Air Flow Rate [m3/s], 2.85309
 Component Sizing Information, Coil:Cooling:DX:SingleSpeed, PTHP 1 SPD DX CLG COIL 16, Design Size Gross Rated Total Cooling Capacity [W], 47228.81944
 Component Sizing Information, Coil:Cooling:DX:SingleSpeed, PTHP 1 SPD DX CLG COIL 16, Design Size Gross Rated Sensible Heat Ratio, 0.80066
 DX Cooling Coil Standard Rating Information, Coil:Cooling:DX:SingleSpeed, PTHP 1 SPD DX CLG COIL 16, 45141.5, 2.53, 8.64, 8.70, 8.60, 8.70
 DX Cooling Coil Standard Rating Information, Coil:Cooling:DX:SingleSpeed, PTHP 1 SPD DX CLG COIL 16, 44681.8, 2.44, 8.34, 8.38, 8.52,  
 Component Sizing Information, Coil:Heating:DX:SingleSpeed, PTHP 1 SPD DX HTG COIL 16, Design Size Rated Air Flow Rate [m3/s], 2.85309
 Component Sizing Information, Coil:Heating:DX:SingleSpeed, PTHP 1 SPD DX HTG COIL 16, Design Size Gross Rated Heating Capacity [W], 47228.81944
 Component Sizing Information, Coil:Heating:DX:SingleSpeed, PTHP 1 SPD DX HTG COIL 16, User-Specified Gross Rated Heating Capacity [W], 2.22045E-016
 Component Sizing Information, Coil:Heating:DX:SingleSpeed, PTHP 1 SPD DX HTG COIL 16, Design Size Resistive Defrost Heater Capacity [W], 47228.81944
 Component Sizing Information, Coil:Heating:DX:SingleSpeed, PTHP 1 SPD DX HTG COIL 16, User-Specified Resistive Defrost Heater Capacity [W], 2000.00000
 DX Heating Coil Standard Rating Information, Coil:Heating:DX:SingleSpeed, PTHP 1 SPD DX HTG COIL 16, 2206.3, 2206.3, 3.03, 4
 DX Heating Coil Standard Rating Information, Coil:Heating:DX:SingleSpeed, PTHP 1 SPD DX HTG COIL 16, 2665.9, 2665.9, 3.07, 4
 Component Sizing Information, Fan:ConstantVolume, PTHP CV FAN 16, Design Size Maximum Flow Rate [m3/s], 2.85309
 Component Sizing Information, Coil:Heating:Electric, PTHP ELEC HTG BACKUP COIL 16, Design Size Nominal Capacity [W], 66295.37357
 Component Sizing Information, ZONEHVAC:BASEBOARD:CONVECTIVE:ELECTRIC, ELEC BASEBOARD 5, Design Size Heating Design Capacity [W], 66077.85728
 Component Sizing Information, ZoneHVAC:PackagedTerminalHeatPump, PTHP 5, Design Size Cooling Supply Air Flow Rate [m3/s], 2.82779
 Component Sizing Information, ZoneHVAC:PackagedTerminalHeatPump, PTHP 5, Design Size Heating Supply Air Flow Rate [m3/s], 2.82779
 Component Sizing Information, ZoneHVAC:PackagedTerminalHeatPump, PTHP 5, User-Specified Heating Supply Air Flow Rate [m3/s], 2.22045E-016
 Component Sizing Information, ZoneHVAC:PackagedTerminalHeatPump, PTHP 5, Design Size No Load Supply Air Flow Rate [m3/s], 2.82779
 Component Sizing Information, ZoneHVAC:PackagedTerminalHeatPump, PTHP 5, Design Size Outdoor Air Flow Rate During Cooling Operation [m3/s], 0.00000
 Component Sizing Information, ZoneHVAC:PackagedTerminalHeatPump, PTHP 5, Design Size Outdoor Air Flow Rate During Heating Operation [m3/s], 0.00000
 Component Sizing Information, ZoneHVAC:PackagedTerminalHeatPump, PTHP 5, Design Size Outdoor Air Flow Rate When No Cooling or Heating is Needed [m3/s], 0.00000
 Component Sizing Information, ZoneHVAC:PackagedTerminalHeatPump, PTHP 5, Design Size Maximum Supply Air Temperature from Supplemental Heater [C], 40.00000
 Component Sizing Information, Coil:Cooling:DX:SingleSpeed, PTHP 1 SPD DX CLG COIL 5, Design Size Rated Air Flow Rate [m3/s], 2.82779
 Component Sizing Information, Coil:Cooling:DX:SingleSpeed, PTHP 1 SPD DX CLG COIL 5, Design Size Gross Rated Total Cooling Capacity [W], 46809.93468
 Component Sizing Information, Coil:Cooling:DX:SingleSpeed, PTHP 1 SPD DX CLG COIL 5, Design Size Gross Rated Sensible Heat Ratio, 0.80066
 DX Cooling Coil Standard Rating Information, Coil:Cooling:DX:SingleSpeed, PTHP 1 SPD DX CLG COIL 5, 44741.1, 2.53, 8.64, 8.70, 8.60, 8.70
 DX Cooling Coil Standard Rating Information, Coil:Cooling:DX:SingleSpeed, PTHP 1 SPD DX CLG COIL 5, 44285.5, 2.44, 8.34, 8.38, 8.52,  
 Component Sizing Information, Coil:Heating:DX:SingleSpeed, PTHP 1 SPD DX HTG COIL 5, Design Size Rated Air Flow Rate [m3/s], 2.82779
 Component Sizing Information, Coil:Heating:DX:SingleSpeed, PTHP 1 SPD DX HTG COIL 5, Design Size Gross Rated Heating Capacity [W], 46809.93468
 Component Sizing Information, Coil:Heating:DX:SingleSpeed, PTHP 1 SPD DX HTG COIL 5, User-Specified Gross Rated Heating Capacity [W], 2.22045E-016
 Component Sizing Information, Coil:Heating:DX:SingleSpeed, PTHP 1 SPD DX HTG COIL 5, Design Size Resistive Defrost Heater Capacity [W], 46809.93468
 Component Sizing Information, Coil:Heating:DX:SingleSpeed, PTHP 1 SPD DX HTG COIL 5, User-Specified Resistive Defrost Heater Capacity [W], 2000.00000
 DX Heating Coil Standard Rating Information, Coil:Heating:DX:SingleSpeed, PTHP 1 SPD DX HTG COIL 5, 2186.7, 2186.7, 2.80, 4
 DX Heating Coil Standard Rating Information, Coil:Heating:DX:SingleSpeed, PTHP 1 SPD DX HTG COIL 5, 2642.3, 2642.3, 3.07, 4
 Component Sizing Information, Fan:ConstantVolume, PTHP CV FAN 5, Design Size Maximum Flow Rate [m3/s], 2.82779
 Component Sizing Information, Coil:Heating:Electric, PTHP ELEC HTG BACKUP COIL 5, Design Size Nominal Capacity [W], 65707.28347
 Component Sizing Information, ZONEHVAC:BASEBOARD:CONVECTIVE:ELECTRIC, ELEC BASEBOARD 10, Design Size Heating Design Capacity [W], 64209.28278
 Component Sizing Information, ZoneHVAC:PackagedTerminalHeatPump, PTHP 10, Design Size Cooling Supply Air Flow Rate [m3/s], 2.74806
 Component Sizing Information, ZoneHVAC:PackagedTerminalHeatPump, PTHP 10, Design Size Heating Supply Air Flow Rate [m3/s], 2.74806
 Component Sizing Information, ZoneHVAC:PackagedTerminalHeatPump, PTHP 10, User-Specified Heating Supply Air Flow Rate [m3/s], 2.22045E-016
 Component Sizing Information, ZoneHVAC:PackagedTerminalHeatPump, PTHP 10, Design Size No Load Supply Air Flow Rate [m3/s], 2.74806
 Component Sizing Information, ZoneHVAC:PackagedTerminalHeatPump, PTHP 10, Design Size Outdoor Air Flow Rate During Cooling Operation [m3/s], 0.00000
 Component Sizing Information, ZoneHVAC:PackagedTerminalHeatPump, PTHP 10, Design Size Outdoor Air Flow Rate During Heating Operation [m3/s], 0.00000
 Component Sizing Information, ZoneHVAC:PackagedTerminalHeatPump, PTHP 10, Design Size Outdoor Air Flow Rate When No Cooling or Heating is Needed [m3/s], 0.00000
 Component Sizing Information, ZoneHVAC:PackagedTerminalHeatPump, PTHP 10, Design Size Maximum Supply Air Temperature from Supplemental Heater [C], 40.00000
 Component Sizing Information, Coil:Cooling:DX:SingleSpeed, PTHP 1 SPD DX CLG COIL 10, Design Size Rated Air Flow Rate [m3/s], 2.74806
 Component Sizing Information, Coil:Cooling:DX:SingleSpeed, PTHP 1 SPD DX CLG COIL 10, Design Size Gross Rated Total Cooling Capacity [W], 45490.08821
 Component Sizing Information, Coil:Cooling:DX:SingleSpeed, PTHP 1 SPD DX CLG COIL 10, Design Size Gross Rated Sensible Heat Ratio, 0.80066
 DX Cooling Coil Standard Rating Information, Coil:Cooling:DX:SingleSpeed, PTHP 1 SPD DX CLG COIL 10, 43479.6, 2.53, 8.64, 8.70, 8.60, 8.70
 DX Cooling Coil Standard Rating Information, Coil:Cooling:DX:SingleSpeed, PTHP 1 SPD DX CLG COIL 10, 43036.9, 2.44, 8.34, 8.38, 8.52,  
 Component Sizing Information, Coil:Heating:DX:SingleSpeed, PTHP 1 SPD DX HTG COIL 10, Design Size Rated Air Flow Rate [m3/s], 2.74806
 Component Sizing Information, Coil:Heating:DX:SingleSpeed, PTHP 1 SPD DX HTG COIL 10, Design Size Gross Rated Heating Capacity [W], 45490.08821
 Component Sizing Information, Coil:Heating:DX:SingleSpeed, PTHP 1 SPD DX HTG COIL 10, User-Specified Gross Rated Heating Capacity [W], 2.22045E-016
 Component Sizing Information, Coil:Heating:DX:SingleSpeed, PTHP 1 SPD DX HTG COIL 10, Design Size Resistive Defrost Heater Capacity [W], 45490.08821
 Component Sizing Information, Coil:Heating:DX:SingleSpeed, PTHP 1 SPD DX HTG COIL 10, User-Specified Resistive Defrost Heater Capacity [W], 2000.00000
 DX Heating Coil Standard Rating Information, Coil:Heating:DX:SingleSpeed, PTHP 1 SPD DX HTG COIL 10, 2125.1, 2125.1, 2.81, 4
 DX Heating Coil Standard Rating Information, Coil:Heating:DX:SingleSpeed, PTHP 1 SPD DX HTG COIL 10, 2567.8, 2567.8, 3.07, 4
 Component Sizing Information, Fan:ConstantVolume, PTHP CV FAN 10, Design Size Maximum Flow Rate [m3/s], 2.74806
 Component Sizing Information, Coil:Heating:Electric, PTHP ELEC HTG BACKUP COIL 10, Design Size Nominal Capacity [W], 63854.76988
 Component Sizing Information, ZONEHVAC:BASEBOARD:CONVECTIVE:ELECTRIC, ELEC BASEBOARD 20, Design Size Heating Design Capacity [W], 64126.53736
 Component Sizing Information, ZoneHVAC:PackagedTerminalHeatPump, PTHP 20, Design Size Cooling Supply Air Flow Rate [m3/s], 2.74451
 Component Sizing Information, ZoneHVAC:PackagedTerminalHeatPump, PTHP 20, Design Size Heating Supply Air Flow Rate [m3/s], 2.74451
 Component Sizing Information, ZoneHVAC:PackagedTerminalHeatPump, PTHP 20, User-Specified Heating Supply Air Flow Rate [m3/s], 2.22045E-016
 Component Sizing Information, ZoneHVAC:PackagedTerminalHeatPump, PTHP 20, Design Size No Load Supply Air Flow Rate [m3/s], 2.74451
 Component Sizing Information, ZoneHVAC:PackagedTerminalHeatPump, PTHP 20, Design Size Outdoor Air Flow Rate During Cooling Operation [m3/s], 0.00000
 Component Sizing Information, ZoneHVAC:PackagedTerminalHeatPump, PTHP 20, Design Size Outdoor Air Flow Rate During Heating Operation [m3/s], 0.00000
 Component Sizing Information, ZoneHVAC:PackagedTerminalHeatPump, PTHP 20, Design Size Outdoor Air Flow Rate When No Cooling or Heating is Needed [m3/s], 0.00000
 Component Sizing Information, ZoneHVAC:PackagedTerminalHeatPump, PTHP 20, Design Size Maximum Supply Air Temperature from Supplemental Heater [C], 40.00000
 Component Sizing Information, Coil:Cooling:DX:SingleSpeed, PTHP 1 SPD DX CLG COIL 20, Design Size Rated Air Flow Rate [m3/s], 2.74451
 Component Sizing Information, Coil:Cooling:DX:SingleSpeed, PTHP 1 SPD DX CLG COIL 20, Design Size Gross Rated Total Cooling Capacity [W], 45431.31049
 Component Sizing Information, Coil:Cooling:DX:SingleSpeed, PTHP 1 SPD DX CLG COIL 20, Design Size Gross Rated Sensible Heat Ratio, 0.80066
 DX Cooling Coil Standard Rating Information, Coil:Cooling:DX:SingleSpeed, PTHP 1 SPD DX CLG COIL 20, 43423.4, 2.53, 8.64, 8.70, 8.60, 8.70
 DX Cooling Coil Standard Rating Information, Coil:Cooling:DX:SingleSpeed, PTHP 1 SPD DX CLG COIL 20, 42981.3, 2.44, 8.34, 8.38, 8.52,  
 Component Sizing Information, Coil:Heating:DX:SingleSpeed, PTHP 1 SPD DX HTG COIL 20, Design Size Rated Air Flow Rate [m3/s], 2.74451
 Component Sizing Information, Coil:Heating:DX:SingleSpeed, PTHP 1 SPD DX HTG COIL 20, Design Size Gross Rated Heating Capacity [W], 45431.31049
 Component Sizing Information, Coil:Heating:DX:SingleSpeed, PTHP 1 SPD DX HTG COIL 20, User-Specified Gross Rated Heating Capacity [W], 2.22045E-016
 Component Sizing Information, Coil:Heating:DX:SingleSpeed, PTHP 1 SPD DX HTG COIL 20, Design Size Resistive Defrost Heater Capacity [W], 45431.31049
 Component Sizing Information, Coil:Heating:DX:SingleSpeed, PTHP 1 SPD DX HTG COIL 20, User-Specified Resistive Defrost Heater Capacity [W], 2000.00000
 DX Heating Coil Standard Rating Information, Coil:Heating:DX:SingleSpeed, PTHP 1 SPD DX HTG COIL 20, 2122.3, 2122.3, 2.81, 4
 DX Heating Coil Standard Rating Information, Coil:Heating:DX:SingleSpeed, PTHP 1 SPD DX HTG COIL 20, 2564.5, 2564.5, 3.07, 4
 Component Sizing Information, Fan:ConstantVolume, PTHP CV FAN 20, Design Size Maximum Flow Rate [m3/s], 2.74451
 Component Sizing Information, Coil:Heating:Electric, PTHP ELEC HTG BACKUP COIL 20, Design Size Nominal Capacity [W], 63772.26535
 Component Sizing Information, ZONEHVAC:BASEBOARD:CONVECTIVE:ELECTRIC, ELEC BASEBOARD 15, Design Size Heating Design Capacity [W], 7698.33128
 Component Sizing Information, ZoneHVAC:PackagedTerminalHeatPump, PTHP 15, Design Size Cooling Supply Air Flow Rate [m3/s], 0.32956
 Component Sizing Information, ZoneHVAC:PackagedTerminalHeatPump, PTHP 15, Design Size Heating Supply Air Flow Rate [m3/s], 0.32956
 Component Sizing Information, ZoneHVAC:PackagedTerminalHeatPump, PTHP 15, User-Specified Heating Supply Air Flow Rate [m3/s], 2.22045E-016
 Component Sizing Information, ZoneHVAC:PackagedTerminalHeatPump, PTHP 15, Design Size No Load Supply Air Flow Rate [m3/s], 0.32956
 Component Sizing Information, ZoneHVAC:PackagedTerminalHeatPump, PTHP 15, Design Size Outdoor Air Flow Rate During Cooling Operation [m3/s], 0.00000
 Component Sizing Information, ZoneHVAC:PackagedTerminalHeatPump, PTHP 15, Design Size Outdoor Air Flow Rate During Heating Operation [m3/s], 0.00000
 Component Sizing Information, ZoneHVAC:PackagedTerminalHeatPump, PTHP 15, Design Size Outdoor Air Flow Rate When No Cooling or Heating is Needed [m3/s], 0.00000
 Component Sizing Information, ZoneHVAC:PackagedTerminalHeatPump, PTHP 15, Design Size Maximum Supply Air Temperature from Supplemental Heater [C], 40.00000
 Component Sizing Information, Coil:Cooling:DX:SingleSpeed, PTHP 1 SPD DX CLG COIL 15, Design Size Rated Air Flow Rate [m3/s], 0.32956
 Component Sizing Information, Coil:Cooling:DX:SingleSpeed, PTHP 1 SPD DX CLG COIL 15, Design Size Gross Rated Total Cooling Capacity [W], 5455.45958
 Component Sizing Information, Coil:Cooling:DX:SingleSpeed, PTHP 1 SPD DX CLG COIL 15, Design Size Gross Rated Sensible Heat Ratio, 0.80066
 DX Cooling Coil Standard Rating Information, Coil:Cooling:DX:SingleSpeed, PTHP 1 SPD DX CLG COIL 15, 5214.3, 2.53, 8.64, 8.70, 8.60, 8.70
 DX Cooling Coil Standard Rating Information, Coil:Cooling:DX:SingleSpeed, PTHP 1 SPD DX CLG COIL 15, 5161.3, 2.44, 8.34, 8.38, 8.52,  
 Component Sizing Information, Coil:Heating:DX:SingleSpeed, PTHP 1 SPD DX HTG COIL 15, Design Size Rated Air Flow Rate [m3/s], 0.32956
 Component Sizing Information, Coil:Heating:DX:SingleSpeed, PTHP 1 SPD DX HTG COIL 15, Design Size Gross Rated Heating Capacity [W], 5455.45958
 Component Sizing Information, Coil:Heating:DX:SingleSpeed, PTHP 1 SPD DX HTG COIL 15, User-Specified Gross Rated Heating Capacity [W], 2.22045E-016
 Component Sizing Information, Coil:Heating:DX:SingleSpeed, PTHP 1 SPD DX HTG COIL 15, Design Size Resistive Defrost Heater Capacity [W], 5455.45958
 Component Sizing Information, Coil:Heating:DX:SingleSpeed, PTHP 1 SPD DX HTG COIL 15, User-Specified Resistive Defrost Heater Capacity [W], 2000.00000
 DX Heating Coil Standard Rating Information, Coil:Heating:DX:SingleSpeed, PTHP 1 SPD DX HTG COIL 15, 254.9, 254.9, 3.38, 4
 DX Heating Coil Standard Rating Information, Coil:Heating:DX:SingleSpeed, PTHP 1 SPD DX HTG COIL 15, 307.9, 307.9, 3.07, 4
[...]
 Warmup Convergence Information,THERMAL ZONE 2,SizingPeriod: MONTREAL INT'L ANN HTG 99.6% CONDNS DB,4.2003394360E-002,0.2142268051,Pass,Pass,1.2287105265E-002,6.0097314047E-002,Pass,Pass
 Warmup Convergence Information,THERMAL ZONE 20,SizingPeriod: MONTREAL INT'L ANN HTG 99.6% CONDNS DB,4.2215157716E-002,0.2397782229,Pass,Pass,9.0722496356E-003,3.9160262947E-002,Pass,Pass
 Warmup Convergence Information,THERMAL ZONE 21,SizingPeriod: MONTREAL INT'L ANN HTG 99.6% CONDNS DB,4.2075195830E-002,0.2321222330,Pass,Pass,1.1618227474E-002,5.2220083053E-002,Pass,Pass
 Warmup Convergence Information,THERMAL ZONE 22,SizingPeriod: MONTREAL INT'L ANN HTG 99.6% CONDNS DB,4.2075500379E-002,0.2321465305,Pass,Pass,1.1610366876E-002,5.2179436414E-002,Pass,Pass
 Warmup Convergence Information,THERMAL ZONE 23,SizingPeriod: MONTREAL INT'L ANN HTG 99.6% CONDNS DB,4.2622190698E-002,0.2410826822,Pass,Pass,7.8211986749E-003,3.2111439863E-002,Pass,Pass
 Warmup Convergence Information,THERMAL ZONE 24,SizingPeriod: MONTREAL INT'L ANN HTG 99.6% CONDNS DB,4.2271790091E-002,0.2407917627,Pass,Pass,8.7629109564E-003,3.5720410048E-002,Pass,Pass
 Warmup Convergence Information,THERMAL ZONE 25,SizingPeriod: MONTREAL INT'L ANN HTG 99.6% CONDNS DB,4.2297234368E-002,0.2419271588,Pass,Pass,8.4129413230E-003,3.4281909111E-002,Pass,Pass
 Warmup Convergence Information,THERMAL ZONE 26,SizingPeriod: MONTREAL INT'L ANN HTG 99.6% CONDNS DB,4.2267064307E-002,0.2402409064,Pass,Pass,8.8415282109E-003,3.6092738333E-002,Pass,Pass
 Warmup Convergence Information,THERMAL ZONE 27,SizingPeriod: MONTREAL INT'L ANN HTG 99.6% CONDNS DB,4.2267300268E-002,0.2402491249,Pass,Pass,8.8384644821E-003,3.6079060687E-002,Pass,Pass
 Warmup Convergence Information,THERMAL ZONE 28,SizingPeriod: MONTREAL INT'L ANN HTG 99.6% CONDNS DB,4.2158724244E-002,0.2363607204,Pass,Pass,1.0213488544E-002,4.3414100423E-002,Pass,Pass
 Warmup Convergence Information,THERMAL ZONE 3,SizingPeriod: MONTREAL INT'L ANN HTG 99.6% CONDNS DB,4.2158551960E-002,0.2383835300,Pass,Pass,9.2732044337E-003,4.1937792932E-002,Pass,Pass
 Warmup Convergence Information,THERMAL ZONE 4,SizingPeriod: MONTREAL INT'L ANN HTG 99.6% CONDNS DB,4.3270097233E-002,0.2487192169,Pass,Pass,7.6240279158E-003,3.3088701991E-002,Pass,Pass
 Warmup Convergence Information,THERMAL ZONE 5,SizingPeriod: MONTREAL INT'L ANN HTG 99.6% CONDNS DB,4.2203228187E-002,0.2393390315,Pass,Pass,8.7757748295E-003,3.8226348861E-002,Pass,Pass
 Warmup Convergence Information,THERMAL ZONE 6,SizingPeriod: MONTREAL INT'L ANN HTG 99.6% CONDNS DB,4.2158679414E-002,0.2383880759,Pass,Pass,9.2710732676E-003,4.1927290042E-002,Pass,Pass
 Warmup Convergence Information,THERMAL ZONE 7,SizingPeriod: MONTREAL INT'L ANN HTG 99.6% CONDNS DB,4.2142230441E-002,0.2377248759,Pass,Pass,9.5369320579E-003,4.3279939762E-002,Pass,Pass
 Warmup Convergence Information,THERMAL ZONE 8,SizingPeriod: MONTREAL INT'L ANN HTG 99.6% CONDNS DB,4.2135167146E-002,0.2371781651,Pass,Pass,9.6717049360E-003,4.4003195881E-002,Pass,Pass
 Warmup Convergence Information,THERMAL ZONE 9,SizingPeriod: MONTREAL INT'L ANN HTG 99.6% CONDNS DB,4.2158477266E-002,0.2363496721,Pass,Pass,1.0218085089E-002,4.3436090804E-002,Pass,Pass
Environment,MONTREAL INT'L ANN HTG WIND 99.6% CONDNS WS=>MCDB,SizingPeriod:DesignDay,01/21,01/21,WinterDesignDay,1,N/A,N/A,N/A,N/A,N/A,N/A,Clark and Allen
Environment:Daylight Saving,No,SizingPeriod:DesignDay
Environment:Design Day Data,-5.30,0.00,DefaultMultipliers,Wetbulb,-5.30,{C},100893,260,12.9,0.00,No,No
Environment:Design Day Misc, 21,1229.0,0.1415,5.7310E-002,1.0,-11.15,-20.1,ASHRAEClearSky
Environment:WarmupDays,  6
 Warmup Convergence Information,THERMAL ZONE 1,SizingPeriod: MONTREAL INT'L ANN HTG WIND 99.6% CONDNS WS=>MCDB,4.2048339767E-002,0.2279303717,Pass,Pass,1.6917234207E-002,8.6804189325E-002,Pass,Pass
 Warmup Convergence Information,THERMAL ZONE 10,SizingPeriod: MONTREAL INT'L ANN HTG WIND 99.6% CONDNS WS=>MCDB,4.2171538541E-002,0.2351800439,Pass,Pass,1.3682105098E-002,6.6337304848E-002,Pass,Pass
 Warmup Convergence Information,THERMAL ZONE 11,SizingPeriod: MONTREAL INT'L ANN HTG WIND 99.6% CONDNS WS=>MCDB,4.2192216774E-002,0.2362430216,Pass,Pass,1.3347963733E-002,6.4369479254E-002,Pass,Pass
 Warmup Convergence Information,THERMAL ZONE 12,SizingPeriod: MONTREAL INT'L ANN HTG WIND 99.6% CONDNS WS=>MCDB,4.2989295630E-002,0.2476259096,Pass,Pass,1.0280389840E-002,4.5438058897E-002,Pass,Pass
 Warmup Convergence Information,THERMAL ZONE 13,SizingPeriod: MONTREAL INT'L ANN HTG WIND 99.6% CONDNS WS=>MCDB,4.2310478105E-002,0.2427058953,Pass,Pass,1.0961374990E-002,4.6466536708E-002,Pass,Pass
 Warmup Convergence Information,THERMAL ZONE 14,SizingPeriod: MONTREAL INT'L ANN HTG WIND 99.6% CONDNS WS=>MCDB,4.2262730631E-002,0.2390675856,Pass,Pass,1.2263574385E-002,5.6060731146E-002,Pass,Pass
 Warmup Convergence Information,THERMAL ZONE 15,SizingPeriod: MONTREAL INT'L ANN HTG WIND 99.6% CONDNS WS=>MCDB,4.2229166221E-002,0.2374141483,Pass,Pass,1.2767931607E-002,5.8825091080E-002,Pass,Pass
 Warmup Convergence Information,THERMAL ZONE 16,SizingPeriod: MONTREAL INT'L ANN HTG WIND 99.6% CONDNS WS=>MCDB,4.2239701202E-002,0.2381592220,Pass,Pass,1.2584975410E-002,5.7790141143E-002,Pass,Pass
 Warmup Convergence Information,THERMAL ZONE 17,SizingPeriod: MONTREAL INT'L ANN HTG WIND 99.6% CONDNS WS=>MCDB,4.2238742775E-002,0.2381440762,Pass,Pass,1.2582836245E-002,5.7776892631E-002,Pass,Pass
 Warmup Convergence Information,THERMAL ZONE 18,SizingPeriod: MONTREAL INT'L ANN HTG WIND 99.6% CONDNS WS=>MCDB,4.2341954137E-002,0.2437516564,Pass,Pass,1.0635555765E-002,4.5060762334E-002,Pass,Pass
 Warmup Convergence Information,THERMAL ZONE 19,SizingPeriod: MONTREAL INT'L ANN HTG WIND 99.6% CONDNS WS=>MCDB,4.2229309856E-002,0.2374405883,Pass,Pass,1.2749222514E-002,5.8720645000E-002,Pass,Pass
 Warmup Convergence Information,THERMAL ZONE 2,SizingPeriod: MONTREAL INT'L ANN HTG WIND 99.6% CONDNS WS=>MCDB,4.1675200864E-002,0.2124493334,Pass,Pass,3.0013001671E-002,0.1743260299,Pass,Pass
 Warmup Convergence Information,THERMAL ZONE 20,SizingPeriod: MONTREAL INT'L ANN HTG WIND 99.6% CONDNS WS=>MCDB,4.2262645368E-002,0.2390444510,Pass,Pass,1.2278234914E-002,5.6140912952E-002,Pass,Pass
 Warmup Convergence Information,THERMAL ZONE 21,SizingPeriod: MONTREAL INT'L ANN HTG WIND 99.6% CONDNS WS=>MCDB,4.2097300445E-002,0.2308445274,Pass,Pass,1.5663226552E-002,7.6115440480E-002,Pass,Pass
 Warmup Convergence Information,THERMAL ZONE 22,SizingPeriod: MONTREAL INT'L ANN HTG WIND 99.6% CONDNS WS=>MCDB,4.2097543965E-002,0.2308850268,Pass,Pass,1.5628904348E-002,7.5901023009E-002,Pass,Pass
 Warmup Convergence Information,THERMAL ZONE 23,SizingPeriod: MONTREAL INT'L ANN HTG WIND 99.6% CONDNS WS=>MCDB,4.2681953365E-002,0.2421645826,Pass,Pass,1.0007424068E-002,4.2784919961E-002,Pass,Pass
 Warmup Convergence Information,THERMAL ZONE 24,SizingPeriod: MONTREAL INT'L ANN HTG WIND 99.6% CONDNS WS=>MCDB,4.2309640331E-002,0.2426918489,Pass,Pass,1.0961032474E-002,4.6459829847E-002,Pass,Pass
 Warmup Convergence Information,THERMAL ZONE 25,SizingPeriod: MONTREAL INT'L ANN HTG WIND 99.6% CONDNS WS=>MCDB,4.2341898221E-002,0.2437465535,Pass,Pass,1.0644623898E-002,4.5103810679E-002,Pass,Pass
 Warmup Convergence Information,THERMAL ZONE 26,SizingPeriod: MONTREAL INT'L ANN HTG WIND 99.6% CONDNS WS=>MCDB,4.2303287913E-002,0.2419481695,Pass,Pass,1.1049418942E-002,4.6907435788E-002,Pass,Pass
 Warmup Convergence Information,THERMAL ZONE 27,SizingPeriod: MONTREAL INT'L ANN HTG WIND 99.6% CONDNS WS=>MCDB,4.2303388933E-002,0.2419743758,Pass,Pass,1.1038471298E-002,4.6855084739E-002,Pass,Pass
 Warmup Convergence Information,THERMAL ZONE 28,SizingPeriod: MONTREAL INT'L ANN HTG WIND 99.6% CONDNS WS=>MCDB,4.2181484901E-002,0.2369215026,Pass,Pass,1.2595508766E-002,5.5841940769E-002,Pass,Pass
 Warmup Convergence Information,THERMAL ZONE 3,SizingPeriod: MONTREAL INT'L ANN HTG WIND 99.6% CONDNS WS=>MCDB,4.2201911308E-002,0.2369020536,Pass,Pass,1.3155319446E-002,6.3205531528E-002,Pass,Pass
 Warmup Convergence Information,THERMAL ZONE 4,SizingPeriod: MONTREAL INT'L ANN HTG WIND 99.6% CONDNS WS=>MCDB,4.2732606219E-002,0.2474701213,Pass,Pass,1.0824983972E-002,4.9235738848E-002,Pass,Pass
 Warmup Convergence Information,THERMAL ZONE 5,SizingPeriod: MONTREAL INT'L ANN HTG WIND 99.6% CONDNS WS=>MCDB,4.2253877448E-002,0.2389499458,Pass,Pass,1.2339202025E-002,5.6128753467E-002,Pass,Pass
 Warmup Convergence Information,THERMAL ZONE 6,SizingPeriod: MONTREAL INT'L ANN HTG WIND 99.6% CONDNS WS=>MCDB,4.2201921762E-002,0.2369217089,Pass,Pass,1.3137828408E-002,6.3104090862E-002,Pass,Pass
 Warmup Convergence Information,THERMAL ZONE 7,SizingPeriod: MONTREAL INT'L ANN HTG WIND 99.6% CONDNS WS=>MCDB,4.2181007561E-002,0.2361591906,Pass,Pass,1.3472493997E-002,6.5047745736E-002,Pass,Pass
 Warmup Convergence Information,THERMAL ZONE 8,SizingPeriod: MONTREAL INT'L ANN HTG WIND 99.6% CONDNS WS=>MCDB,4.2171582811E-002,0.2352280464,Pass,Pass,1.3659800003E-002,6.6204456438E-002,Pass,Pass
 Warmup Convergence Information,THERMAL ZONE 9,SizingPeriod: MONTREAL INT'L ANN HTG WIND 99.6% CONDNS WS=>MCDB,4.2181355293E-002,0.2368968249,Pass,Pass,1.2611616978E-002,5.5924493605E-002,Pass,Pass
Environment,MONTREAL INT'L ANN HUM_N 99.6% CONDNS DP=>MCDB,SizingPeriod:DesignDay,01/21,01/21,WinterDesignDay,1,N/A,N/A,N/A,N/A,N/A,N/A,Clark and Allen
Environment:Daylight Saving,No,SizingPeriod:DesignDay
Environment:Design Day Data,-23.00,0.00,DefaultMultipliers,Dewpoint,-30.50,{C},100893,260,3.9,0.00,No,No
Environment:Design Day Misc, 21,1229.0,0.1415,5.7310E-002,1.0,-11.15,-20.1,ASHRAEClearSky
Environment:WarmupDays,  5
 Warmup Convergence Information,THERMAL ZONE 1,SizingPeriod: MONTREAL INT'L ANN HUM_N 99.6% CONDNS DP=>MCDB,4.2031192415E-002,0.2299730788,Pass,Pass,1.2087770942E-002,5.6955354661E-002,Pass,Pass
 Warmup Convergence Information,THERMAL ZONE 10,SizingPeriod: MONTREAL INT'L ANN HUM_N 99.6% CONDNS DP=>MCDB,4.2136609711E-002,0.2373401901,Pass,Pass,9.7926158612E-003,4.4620349275E-002,Pass,Pass
 Warmup Convergence Information,THERMAL ZONE 11,SizingPeriod: MONTREAL INT'L ANN HUM_N 99.6% CONDNS DP=>MCDB,4.2153019264E-002,0.2380022834,Pass,Pass,9.5244804370E-003,4.3244734143E-002,Pass,Pass
 Warmup Convergence Information,THERMAL ZONE 12,SizingPeriod: MONTREAL INT'L ANN HUM_N 99.6% CONDNS DP=>MCDB,4.3497014024E-002,0.2486706519,Pass,Pass,7.7043877857E-003,3.2526710787E-002,Pass,Pass
 Warmup Convergence Information,THERMAL ZONE 13,SizingPeriod: MONTREAL INT'L ANN HUM_N 99.6% CONDNS DP=>MCDB,4.2274956306E-002,0.2410451230,Pass,Pass,8.8647150853E-003,3.6167348636E-002,Pass,Pass
 Warmup Convergence Information,THERMAL ZONE 14,SizingPeriod: MONTREAL INT'L ANN HUM_N 99.6% CONDNS DP=>MCDB,4.2217497240E-002,0.2399889338,Pass,Pass,9.1756221907E-003,3.9657830930E-002,Pass,Pass
 Warmup Convergence Information,THERMAL ZONE 15,SizingPeriod: MONTREAL INT'L ANN HUM_N 99.6% CONDNS DP=>MCDB,4.2190888916E-002,0.2386074441,Pass,Pass,9.6096307586E-003,4.1759215439E-002,Pass,Pass
 Warmup Convergence Information,THERMAL ZONE 16,SizingPeriod: MONTREAL INT'L ANN HUM_N 99.6% CONDNS DP=>MCDB,4.2198999762E-002,0.2392269868,Pass,Pass,9.4630847818E-003,4.1024957029E-002,Pass,Pass
 Warmup Convergence Information,THERMAL ZONE 17,SizingPeriod: MONTREAL INT'L ANN HUM_N 99.6% CONDNS DP=>MCDB,4.2198352557E-002,0.2391995253,Pass,Pass,9.4722452904E-003,4.1069189959E-002,Pass,Pass
 Warmup Convergence Information,THERMAL ZONE 18,SizingPeriod: MONTREAL INT'L ANN HUM_N 99.6% CONDNS DP=>MCDB,4.2300235020E-002,0.2421745099,Pass,Pass,8.5132917871E-003,3.4717042760E-002,Pass,Pass
 Warmup Convergence Information,THERMAL ZONE 19,SizingPeriod: MONTREAL INT'L ANN HUM_N 99.6% CONDNS DP=>MCDB,4.2191138657E-002,0.2386152851,Pass,Pass,9.6045317785E-003,4.1734717712E-002,Pass,Pass
 Warmup Convergence Information,THERMAL ZONE 2,SizingPeriod: MONTREAL INT'L ANN HUM_N 99.6% CONDNS DP=>MCDB,4.2003939308E-002,0.2145137054,Pass,Pass,1.2452203689E-002,5.9751445052E-002,Pass,Pass
 Warmup Convergence Information,THERMAL ZONE 20,SizingPeriod: MONTREAL INT'L ANN HUM_N 99.6% CONDNS DP=>MCDB,4.2217303270E-002,0.2399827409,Pass,Pass,9.1793809530E-003,3.9675535243E-002,Pass,Pass
 Warmup Convergence Information,THERMAL ZONE 21,SizingPeriod: MONTREAL INT'L ANN HUM_N 99.6% CONDNS DP=>MCDB,4.2076426879E-002,0.2322882764,Pass,Pass,1.1761522095E-002,5.2974862398E-002,Pass,Pass
 Warmup Convergence Information,THERMAL ZONE 22,SizingPeriod: MONTREAL INT'L ANN HUM_N 99.6% CONDNS DP=>MCDB,4.2076720037E-002,0.2323110089,Pass,Pass,1.1752231933E-002,5.2926330498E-002,Pass,Pass
 Warmup Convergence Information,THERMAL ZONE 23,SizingPeriod: MONTREAL INT'L ANN HUM_N 99.6% CONDNS DP=>MCDB,4.2625933790E-002,0.2413171035,Pass,Pass,7.9178919354E-003,3.2534384437E-002,Pass,Pass
 Warmup Convergence Information,THERMAL ZONE 24,SizingPeriod: MONTREAL INT'L ANN HUM_N 99.6% CONDNS DP=>MCDB,4.2274404125E-002,0.2410197243,Pass,Pass,8.8722096238E-003,3.6196775339E-002,Pass,Pass
 Warmup Convergence Information,THERMAL ZONE 25,SizingPeriod: MONTREAL INT'L ANN HUM_N 99.6% CONDNS DP=>MCDB,4.2300055806E-002,0.2421687002,Pass,Pass,8.5161719842E-003,3.4729816619E-002,Pass,Pass
 Warmup Convergence Information,THERMAL ZONE 26,SizingPeriod: MONTREAL INT'L ANN HUM_N 99.6% CONDNS DP=>MCDB,4.2269617214E-002,0.2404636621,Pass,Pass,8.9532375769E-003,3.6581054574E-002,Pass,Pass
 Warmup Convergence Information,THERMAL ZONE 27,SizingPeriod: MONTREAL INT'L ANN HUM_N 99.6% CONDNS DP=>MCDB,4.2269836625E-002,0.2404705995,Pass,Pass,8.9494785053E-003,3.6564019309E-002,Pass,Pass
 Warmup Convergence Information,THERMAL ZONE 28,SizingPeriod: MONTREAL INT'L ANN HUM_N 99.6% CONDNS DP=>MCDB,4.2160509118E-002,0.2368327669,Pass,Pass,1.0344295284E-002,4.4025682896E-002,Pass,Pass
 Warmup Convergence Information,THERMAL ZONE 3,SizingPeriod: MONTREAL INT'L ANN HUM_N 99.6% CONDNS DP=>MCDB,4.2160283097E-002,0.2385591139,Pass,Pass,9.3807357914E-003,4.2479315475E-002,Pass,Pass
 Warmup Convergence Information,THERMAL ZONE 4,SizingPeriod: MONTREAL INT'L ANN HUM_N 99.6% CONDNS DP=>MCDB,4.3277384587E-002,0.2490294584,Pass,Pass,7.7155168866E-003,3.3516918595E-002,Pass,Pass
 Warmup Convergence Information,THERMAL ZONE 5,SizingPeriod: MONTREAL INT'L ANN HUM_N 99.6% CONDNS DP=>MCDB,4.2205351882E-002,0.2395370670,Pass,Pass,8.8838085796E-003,3.8730209878E-002,Pass,Pass
 Warmup Convergence Information,THERMAL ZONE 6,SizingPeriod: MONTREAL INT'L ANN HUM_N 99.6% CONDNS DP=>MCDB,4.2160404406E-002,0.2385630881,Pass,Pass,9.3782214843E-003,4.2466798372E-002,Pass,Pass
 Warmup Convergence Information,THERMAL ZONE 7,SizingPeriod: MONTREAL INT'L ANN HUM_N 99.6% CONDNS DP=>MCDB,4.2143869851E-002,0.2378952291,Pass,Pass,9.6500975005E-003,4.3854547133E-002,Pass,Pass
 Warmup Convergence Information,THERMAL ZONE 8,SizingPeriod: MONTREAL INT'L ANN HUM_N 99.6% CONDNS DP=>MCDB,4.2136762749E-002,0.2373450998,Pass,Pass,9.7892601445E-003,4.4603326617E-002,Pass,Pass
 Warmup Convergence Information,THERMAL ZONE 9,SizingPeriod: MONTREAL INT'L ANN HUM_N 99.6% CONDNS DP=>MCDB,4.2160276665E-002,0.2368250642,Pass,Pass,1.0349923886E-002,4.4052686138E-002,Pass,Pass
Environment,RUN PERIOD 1,WeatherFileRunPeriod,01/01/2006,12/31/2006,Sunday,365,Use RunPeriod Specified Day,No,No,No,Yes,Yes,Clark and Allen
Environment:Daylight Saving,No,RunPeriod Object
Environment:WarmupDays,  8
 Warmup Convergence Information,THERMAL ZONE 1,RunPeriod: RUN PERIOD 1,4.4950362001E-002,0.2219280240,Pass,Pass,0.1129213619,0.6730613044,Pass,Pass
 Warmup Convergence Information,THERMAL ZONE 10,RunPeriod: RUN PERIOD 1,4.2364940395E-002,0.2691070646,Pass,Pass,9.7247615236E-002,0.6975599052,Pass,Pass
 Warmup Convergence Information,THERMAL ZONE 11,RunPeriod: RUN PERIOD 1,4.2380104443E-002,0.2710368707,Pass,Pass,7.7802184939E-002,0.4961976369,Pass,Pass
 Warmup Convergence Information,THERMAL ZONE 12,RunPeriod: RUN PERIOD 1,4.2905093378E-002,0.3073924623,Pass,Pass,3.4045517284E-002,0.1164921882,Pass,Pass
 Warmup Convergence Information,THERMAL ZONE 13,RunPeriod: RUN PERIOD 1,4.2768018254E-002,0.2843176132,Pass,Pass,5.5724537965E-002,0.1983047998,Pass,Pass
 Warmup Convergence Information,THERMAL ZONE 14,RunPeriod: RUN PERIOD 1,4.2781900420E-002,0.2739306836,Pass,Pass,7.2217530769E-002,0.3754036468,Pass,Pass
 Warmup Convergence Information,THERMAL ZONE 15,RunPeriod: RUN PERIOD 1,4.2583599662E-002,0.2732399581,Pass,Pass,6.3832141774E-002,0.3277391664,Pass,Pass
 Warmup Convergence Information,THERMAL ZONE 16,RunPeriod: RUN PERIOD 1,4.2640387560E-002,0.2747536136,Pass,Pass,6.1188099854E-002,0.2893735699,Pass,Pass
 Warmup Convergence Information,THERMAL ZONE 17,RunPeriod: RUN PERIOD 1,4.2756087677E-002,0.2735498857,Pass,Pass,6.9969847225E-002,0.3465072800,Pass,Pass
 Warmup Convergence Information,THERMAL ZONE 18,RunPeriod: RUN PERIOD 1,4.3048716038E-002,0.2854331032,Pass,Pass,6.0163221787E-002,0.1988270639,Pass,Pass
 Warmup Convergence Information,THERMAL ZONE 19,RunPeriod: RUN PERIOD 1,4.2678389690E-002,0.2722139288,Pass,Pass,7.3497064081E-002,0.4019612338,Pass,Pass
 Warmup Convergence Information,THERMAL ZONE 2,RunPeriod: RUN PERIOD 1,4.3897221337E-002,0.2291750212,Pass,Pass,0.1178933875,0.8501519968,Pass,Pass
 Warmup Convergence Information,THERMAL ZONE 20,RunPeriod: RUN PERIOD 1,4.2701033950E-002,0.2743378464,Pass,Pass,6.8846295815E-002,0.3473201796,Pass,Pass
 Warmup Convergence Information,THERMAL ZONE 21,RunPeriod: RUN PERIOD 1,4.1826561386E-002,0.2535068338,Pass,Pass,0.1075681256,0.6686967907,Pass,Pass
 Warmup Convergence Information,THERMAL ZONE 22,RunPeriod: RUN PERIOD 1,4.2497515120E-002,0.2512601480,Pass,Pass,0.1164693734,0.6510463221,Pass,Pass
 Warmup Convergence Information,THERMAL ZONE 23,RunPeriod: RUN PERIOD 1,4.2805054103E-002,0.2854709912,Pass,Pass,4.4736143199E-002,0.1780247745,Pass,Pass
 Warmup Convergence Information,THERMAL ZONE 24,RunPeriod: RUN PERIOD 1,4.3106882319E-002,0.2839520098,Pass,Pass,6.1485097519E-002,0.2001925640,Pass,Pass
 Warmup Convergence Information,THERMAL ZONE 25,RunPeriod: RUN PERIOD 1,4.2971616509E-002,0.2855629924,Pass,Pass,5.8563548452E-002,0.1976608744,Pass,Pass
 Warmup Convergence Information,THERMAL ZONE 26,RunPeriod: RUN PERIOD 1,4.2721312795E-002,0.2833433633,Pass,Pass,5.4986621260E-002,0.1990282679,Pass,Pass
 Warmup Convergence Information,THERMAL ZONE 27,RunPeriod: RUN PERIOD 1,4.2989137951E-002,0.2830840541,Pass,Pass,6.0425462629E-002,0.2005336157,Pass,Pass
 Warmup Convergence Information,THERMAL ZONE 28,RunPeriod: RUN PERIOD 1,4.2734486241E-002,0.2707442418,Pass,Pass,9.1766028947E-002,0.5147362186,Pass,Pass
 Warmup Convergence Information,THERMAL ZONE 3,RunPeriod: RUN PERIOD 1,4.2421172735E-002,0.2691499470,Pass,Pass,9.8860483435E-002,0.6612269621,Pass,Pass
 Warmup Convergence Information,THERMAL ZONE 4,RunPeriod: RUN PERIOD 1,4.2710076524E-002,0.3057618247,Pass,Pass,3.5419965126E-002,0.1255412163,Pass,Pass
 Warmup Convergence Information,THERMAL ZONE 5,RunPeriod: RUN PERIOD 1,4.2527723512E-002,0.2810744915,Pass,Pass,5.9081044761E-002,0.2195326688,Pass,Pass
 Warmup Convergence Information,THERMAL ZONE 6,RunPeriod: RUN PERIOD 1,4.2402241512E-002,0.2683707003,Pass,Pass,0.1005355996,0.6557246189,Pass,Pass
 Warmup Convergence Information,THERMAL ZONE 7,RunPeriod: RUN PERIOD 1,4.2397543916E-002,0.2682928628,Pass,Pass,0.1022039404,0.6775886950,Pass,Pass
 Warmup Convergence Information,THERMAL ZONE 8,RunPeriod: RUN PERIOD 1,4.2354555768E-002,0.2669066905,Pass,Pass,0.1018103050,0.6852868569,Pass,Pass
 Warmup Convergence Information,THERMAL ZONE 9,RunPeriod: RUN PERIOD 1,4.2559696764E-002,0.2717311556,Pass,Pass,7.6088456748E-002,0.3982921442,Pass,Pass
! <Program Control Information:Threads/Parallel Sims>, Threading Supported,Maximum Number of Threads, Env Set Threads (OMP_NUM_THREADS), EP Env Set Threads (EP_OMP_NUM_THREADS), IDF Set Threads, Number of Threads Used (Interior Radiant Exchange), Number Nominal Surfaces, Number Parallel Sims
Program Control:Threads/Parallel Sims, No,1, N/A, N/A, N/A, N/A, N/A, N/A
End of Data
