Program Version,EnergyPlus, Version 23.2.0-7636e6b3e9, YMD=2024.07.17 07:44
! This file shows details about the branches, nodes, and other
! elements of the flow connections.
! This file is intended for use in "debugging" potential problems
! that may also be detected by the program, but may be more easily
! identified by "eye".
! This file is also intended to support software which draws a
! schematic diagram of the HVAC system.
! ===============================================================
! #Nodes,<Number of Unique Nodes>
 #Nodes,267
! <Node>,<NodeNumber>,<Node Name>,<Node Fluid Type>,<# Times Node Referenced After Definition>
 Node,1,NODE 30,Air,3
 Node,2,NODE 29,Air,3
 Node,3,NODE 47,Air,3
 Node,4,NODE 46,Air,3
 Node,5,NODE 81,Air,3
 Node,6,NODE 80,Air,3
 Node,7,NODE 55,Air,3
 Node,8,NODE 54,Air,3
 Node,9,NODE 85,Air,3
 Node,10,NODE 84,Air,3
 Node,11,NODE 71,Air,3
 Node,12,NODE 70,Air,3
 Node,13,NODE 49,Air,3
 Node,14,NODE 48,Air,3
 Node,15,NODE 59,Air,3
 Node,16,NODE 58,Air,3
 Node,17,NODE 79,Air,3
 Node,18,NODE 78,Air,3
 Node,19,NODE 69,Air,3
 Node,20,NODE 68,Air,3
 Node,21,NODE 57,Air,3
 Node,22,NODE 56,Air,3
 Node,23,NODE 91,Air,3
 Node,24,NODE 90,Air,3
 Node,25,NODE 87,Air,3
 Node,26,NODE 86,Air,3
 Node,27,NODE 73,Air,3
 Node,28,NODE 72,Air,3
 Node,29,NODE 75,Air,3
 Node,30,NODE 74,Air,3
 Node,31,NODE 77,Air,3
 Node,32,NODE 76,Air,3
 Node,33,NODE 83,Air,3
 Node,34,NODE 82,Air,3
 Node,35,NODE 89,Air,3
 Node,36,NODE 88,Air,3
 Node,37,NODE 41,Air,3
 Node,38,NODE 40,Air,3
 Node,39,NODE 45,Air,3
 Node,40,NODE 44,Air,3
 Node,41,NODE 43,Air,3
 Node,42,NODE 42,Air,3
 Node,43,NODE 93,Air,3
 Node,44,NODE 92,Air,3
 Node,45,NODE 67,Air,3
 Node,46,NODE 66,Air,3
 Node,47,NODE 61,Air,3
 Node,48,NODE 60,Air,3
 Node,49,NODE 51,Air,3
 Node,50,NODE 50,Air,3
 Node,51,NODE 63,Air,3
 Node,52,NODE 62,Air,3
 Node,53,NODE 53,Air,3
 Node,54,NODE 52,Air,3
 Node,55,NODE 65,Air,3
 Node,56,NODE 64,Air,3
 Node,57,NODE 31,Water,2
 Node,58,NODE 37,Water,1
 Node,59,NODE 33,Water,1
 Node,60,NODE 38,Water,1
 Node,61,SERVICE WATER LOOP SUPPLY OUTLET PIPE NODE,Water,1
 Node,62,NODE 32,Water,4
 Node,63,NODE 34,Water,2
 Node,64,SERVICE WATER LOOP DEMAND INLET PIPE NODE,Water,1
 Node,65,NODE 36,Water,1
 Node,66,NODE 39,Water,1
 Node,67,SERVICE WATER LOOP DEMAND BYPASS PIPE INLET NODE,Water,1
 Node,68,SERVICE WATER LOOP DEMAND BYPASS PIPE OUTLET NODE,Water,1
 Node,69,SERVICE WATER LOOP DEMAND OUTLET PIPE NODE,Water,1
 Node,70,NODE 35,Water,2
 Node,71,PTHP OA NODE,Air,1
 Node,72,PTHP 4 OA NODE,Air,1
 Node,73,PTHP 21 OA NODE,Air,1
 Node,74,PTHP 8 OA NODE,Air,1
 Node,75,PTHP 23 OA NODE,Air,1
 Node,76,PTHP 16 OA NODE,Air,1
 Node,77,PTHP 5 OA NODE,Air,1
 Node,78,PTHP 10 OA NODE,Air,1
 Node,79,PTHP 20 OA NODE,Air,1
 Node,80,PTHP 15 OA NODE,Air,1
 Node,81,PTHP 9 OA NODE,Air,1
 Node,82,PTHP 26 OA NODE,Air,1
 Node,83,PTHP 24 OA NODE,Air,1
 Node,84,PTHP 17 OA NODE,Air,1
 Node,85,PTHP 18 OA NODE,Air,1
 Node,86,PTHP 19 OA NODE,Air,1
 Node,87,PTHP 22 OA NODE,Air,1
 Node,88,PTHP 25 OA NODE,Air,1
 Node,89,PTHP 1 OA NODE,Air,1
 Node,90,PTHP 3 OA NODE,Air,1
 Node,91,PTHP 2 OA NODE,Air,1
 Node,92,PTHP 27 OA NODE,Air,1
 Node,93,PTHP 14 OA NODE,Air,1
 Node,94,PTHP 11 OA NODE,Air,1
 Node,95,PTHP 6 OA NODE,Air,1
 Node,96,PTHP 12 OA NODE,Air,1
 Node,97,PTHP 7 OA NODE,Air,1
 Node,98,PTHP 13 OA NODE,Air,1
 Node,99,MODEL OUTDOOR AIR NODE,Air,0
 Node,100,NODE 1,Air,0
 Node,101,PTHP MIXED AIR NODE,Air,1
 Node,102,PTHP COOLING COIL OUTLET NODE,Air,1
 Node,103,PTHP 4 MIXED AIR NODE,Air,1
 Node,104,PTHP 4 COOLING COIL OUTLET NODE,Air,1
 Node,105,PTHP 21 MIXED AIR NODE,Air,1
 Node,106,PTHP 21 COOLING COIL OUTLET NODE,Air,1
 Node,107,PTHP 8 MIXED AIR NODE,Air,1
 Node,108,PTHP 8 COOLING COIL OUTLET NODE,Air,1
 Node,109,PTHP 23 MIXED AIR NODE,Air,1
 Node,110,PTHP 23 COOLING COIL OUTLET NODE,Air,1
 Node,111,PTHP 16 MIXED AIR NODE,Air,1
 Node,112,PTHP 16 COOLING COIL OUTLET NODE,Air,1
 Node,113,PTHP 5 MIXED AIR NODE,Air,1
 Node,114,PTHP 5 COOLING COIL OUTLET NODE,Air,1
 Node,115,PTHP 10 MIXED AIR NODE,Air,1
 Node,116,PTHP 10 COOLING COIL OUTLET NODE,Air,1
 Node,117,PTHP 20 MIXED AIR NODE,Air,1
 Node,118,PTHP 20 COOLING COIL OUTLET NODE,Air,1
 Node,119,PTHP 15 MIXED AIR NODE,Air,1
 Node,120,PTHP 15 COOLING COIL OUTLET NODE,Air,1
 Node,121,PTHP 9 MIXED AIR NODE,Air,1
 Node,122,PTHP 9 COOLING COIL OUTLET NODE,Air,1
 Node,123,PTHP 26 MIXED AIR NODE,Air,1
 Node,124,PTHP 26 COOLING COIL OUTLET NODE,Air,1
 Node,125,PTHP 24 MIXED AIR NODE,Air,1
 Node,126,PTHP 24 COOLING COIL OUTLET NODE,Air,1
 Node,127,PTHP 17 MIXED AIR NODE,Air,1
 Node,128,PTHP 17 COOLING COIL OUTLET NODE,Air,1
 Node,129,PTHP 18 MIXED AIR NODE,Air,1
 Node,130,PTHP 18 COOLING COIL OUTLET NODE,Air,1
 Node,131,PTHP 19 MIXED AIR NODE,Air,1
 Node,132,PTHP 19 COOLING COIL OUTLET NODE,Air,1
 Node,133,PTHP 22 MIXED AIR NODE,Air,1
 Node,134,PTHP 22 COOLING COIL OUTLET NODE,Air,1
 Node,135,PTHP 25 MIXED AIR NODE,Air,1
 Node,136,PTHP 25 COOLING COIL OUTLET NODE,Air,1
 Node,137,PTHP 1 MIXED AIR NODE,Air,1
 Node,138,PTHP 1 COOLING COIL OUTLET NODE,Air,1
 Node,139,PTHP 3 MIXED AIR NODE,Air,1
 Node,140,PTHP 3 COOLING COIL OUTLET NODE,Air,1
 Node,141,PTHP 2 MIXED AIR NODE,Air,1
 Node,142,PTHP 2 COOLING COIL OUTLET NODE,Air,1
 Node,143,PTHP 27 MIXED AIR NODE,Air,1
 Node,144,PTHP 27 COOLING COIL OUTLET NODE,Air,1
 Node,145,PTHP 14 MIXED AIR NODE,Air,1
 Node,146,PTHP 14 COOLING COIL OUTLET NODE,Air,1
 Node,147,PTHP 11 MIXED AIR NODE,Air,1
 Node,148,PTHP 11 COOLING COIL OUTLET NODE,Air,1
 Node,149,PTHP 6 MIXED AIR NODE,Air,1
 Node,150,PTHP 6 COOLING COIL OUTLET NODE,Air,1
 Node,151,PTHP 12 MIXED AIR NODE,Air,1
 Node,152,PTHP 12 COOLING COIL OUTLET NODE,Air,1
 Node,153,PTHP 7 MIXED AIR NODE,Air,1
 Node,154,PTHP 7 COOLING COIL OUTLET NODE,Air,1
 Node,155,PTHP 13 MIXED AIR NODE,Air,1
 Node,156,PTHP 13 COOLING COIL OUTLET NODE,Air,1
 Node,157,PTHP HEATING COIL OUTLET NODE,Air,1
 Node,158,PTHP 4 HEATING COIL OUTLET NODE,Air,1
 Node,159,PTHP 21 HEATING COIL OUTLET NODE,Air,1
 Node,160,PTHP 8 HEATING COIL OUTLET NODE,Air,1
 Node,161,PTHP 23 HEATING COIL OUTLET NODE,Air,1
 Node,162,PTHP 16 HEATING COIL OUTLET NODE,Air,1
 Node,163,PTHP 5 HEATING COIL OUTLET NODE,Air,1
 Node,164,PTHP 10 HEATING COIL OUTLET NODE,Air,1
 Node,165,PTHP 20 HEATING COIL OUTLET NODE,Air,1
 Node,166,PTHP 15 HEATING COIL OUTLET NODE,Air,1
 Node,167,PTHP 9 HEATING COIL OUTLET NODE,Air,1
 Node,168,PTHP 26 HEATING COIL OUTLET NODE,Air,1
 Node,169,PTHP 24 HEATING COIL OUTLET NODE,Air,1
 Node,170,PTHP 17 HEATING COIL OUTLET NODE,Air,1
 Node,171,PTHP 18 HEATING COIL OUTLET NODE,Air,1
 Node,172,PTHP 19 HEATING COIL OUTLET NODE,Air,1
 Node,173,PTHP 22 HEATING COIL OUTLET NODE,Air,1
 Node,174,PTHP 25 HEATING COIL OUTLET NODE,Air,1
 Node,175,PTHP 1 HEATING COIL OUTLET NODE,Air,1
 Node,176,PTHP 3 HEATING COIL OUTLET NODE,Air,1
 Node,177,PTHP 2 HEATING COIL OUTLET NODE,Air,1
 Node,178,PTHP 27 HEATING COIL OUTLET NODE,Air,1
 Node,179,PTHP 14 HEATING COIL OUTLET NODE,Air,1
 Node,180,PTHP 11 HEATING COIL OUTLET NODE,Air,1
 Node,181,PTHP 6 HEATING COIL OUTLET NODE,Air,1
 Node,182,PTHP 12 HEATING COIL OUTLET NODE,Air,1
 Node,183,PTHP 7 HEATING COIL OUTLET NODE,Air,1
 Node,184,PTHP 13 HEATING COIL OUTLET NODE,Air,1
 Node,185,PTHP RELIEF AIR NODE,Air,0
 Node,186,PTHP 4 RELIEF AIR NODE,Air,0
 Node,187,PTHP 21 RELIEF AIR NODE,Air,0
 Node,188,PTHP 8 RELIEF AIR NODE,Air,0
 Node,189,PTHP 23 RELIEF AIR NODE,Air,0
 Node,190,PTHP 16 RELIEF AIR NODE,Air,0
 Node,191,PTHP 5 RELIEF AIR NODE,Air,0
 Node,192,PTHP 10 RELIEF AIR NODE,Air,0
 Node,193,PTHP 20 RELIEF AIR NODE,Air,0
 Node,194,PTHP 15 RELIEF AIR NODE,Air,0
 Node,195,PTHP 9 RELIEF AIR NODE,Air,0
 Node,196,PTHP 26 RELIEF AIR NODE,Air,0
 Node,197,PTHP 24 RELIEF AIR NODE,Air,0
 Node,198,PTHP 17 RELIEF AIR NODE,Air,0
 Node,199,PTHP 18 RELIEF AIR NODE,Air,0
 Node,200,PTHP 19 RELIEF AIR NODE,Air,0
 Node,201,PTHP 22 RELIEF AIR NODE,Air,0
 Node,202,PTHP 25 RELIEF AIR NODE,Air,0
 Node,203,PTHP 1 RELIEF AIR NODE,Air,0
 Node,204,PTHP 3 RELIEF AIR NODE,Air,0
 Node,205,PTHP 2 RELIEF AIR NODE,Air,0
 Node,206,PTHP 27 RELIEF AIR NODE,Air,0
 Node,207,PTHP 14 RELIEF AIR NODE,Air,0
 Node,208,PTHP 11 RELIEF AIR NODE,Air,0
 Node,209,PTHP 6 RELIEF AIR NODE,Air,0
 Node,210,PTHP 12 RELIEF AIR NODE,Air,0
 Node,211,PTHP 7 RELIEF AIR NODE,Air,0
 Node,212,PTHP 13 RELIEF AIR NODE,Air,0
 Node,213,NODE 10,Air,0
 Node,214,NODE 11,Air,0
 Node,215,NODE 12,Air,0
 Node,216,NODE 13,Air,0
 Node,217,NODE 14,Air,0
 Node,218,NODE 15,Air,0
 Node,219,NODE 16,Air,0
 Node,220,NODE 17,Air,0
 Node,221,NODE 18,Air,0
 Node,222,NODE 19,Air,0
 Node,223,NODE 2,Air,0
 Node,224,NODE 20,Air,0
 Node,225,NODE 21,Air,0
 Node,226,NODE 22,Air,0
 Node,227,NODE 23,Air,0
 Node,228,NODE 24,Air,0
 Node,229,NODE 25,Air,0
 Node,230,NODE 26,Air,0
 Node,231,NODE 27,Air,0
 Node,232,NODE 28,Air,0
 Node,233,NODE 3,Air,0
 Node,234,NODE 4,Air,0
 Node,235,NODE 5,Air,0
 Node,236,NODE 6,Air,0
 Node,237,NODE 7,Air,0
 Node,238,NODE 8,Air,0
 Node,239,NODE 9,Air,0
 Node,240,PTHP FAN OUTLET NODE,Air,1
 Node,241,PTHP 4 FAN OUTLET NODE,Air,1
 Node,242,PTHP 21 FAN OUTLET NODE,Air,1
 Node,243,PTHP 8 FAN OUTLET NODE,Air,1
 Node,244,PTHP 23 FAN OUTLET NODE,Air,1
 Node,245,PTHP 16 FAN OUTLET NODE,Air,1
 Node,246,PTHP 5 FAN OUTLET NODE,Air,1
 Node,247,PTHP 10 FAN OUTLET NODE,Air,1
 Node,248,PTHP 20 FAN OUTLET NODE,Air,1
 Node,249,PTHP 15 FAN OUTLET NODE,Air,1
 Node,250,PTHP 9 FAN OUTLET NODE,Air,1
 Node,251,PTHP 26 FAN OUTLET NODE,Air,1
 Node,252,PTHP 24 FAN OUTLET NODE,Air,1
 Node,253,PTHP 17 FAN OUTLET NODE,Air,1
 Node,254,PTHP 18 FAN OUTLET NODE,Air,1
 Node,255,PTHP 19 FAN OUTLET NODE,Air,1
 Node,256,PTHP 22 FAN OUTLET NODE,Air,1
 Node,257,PTHP 25 FAN OUTLET NODE,Air,1
 Node,258,PTHP 1 FAN OUTLET NODE,Air,1
 Node,259,PTHP 3 FAN OUTLET NODE,Air,1
 Node,260,PTHP 2 FAN OUTLET NODE,Air,1
 Node,261,PTHP 27 FAN OUTLET NODE,Air,1
 Node,262,PTHP 14 FAN OUTLET NODE,Air,1
 Node,263,PTHP 11 FAN OUTLET NODE,Air,1
 Node,264,PTHP 6 FAN OUTLET NODE,Air,1
 Node,265,PTHP 12 FAN OUTLET NODE,Air,1
 Node,266,PTHP 7 FAN OUTLET NODE,Air,1
 Node,267,PTHP 13 FAN OUTLET NODE,Air,1
! ===============================================================
! Suspicious nodes have 0 references.  It is normal for some nodes, however.
! Listing nodes with 0 references (culled from previous list):
! <Suspicious Node>,<NodeNumber>,<Node Name>,<Node Fluid Type>,<# Times Node Referenced After Definition>
 Suspicious Node,99,MODEL OUTDOOR AIR NODE,Air,0
 Suspicious Node,100,NODE 1,Air,0
 Suspicious Node,185,PTHP RELIEF AIR NODE,Air,0
 Suspicious Node,186,PTHP 4 RELIEF AIR NODE,Air,0
 Suspicious Node,187,PTHP 21 RELIEF AIR NODE,Air,0
 Suspicious Node,188,PTHP 8 RELIEF AIR NODE,Air,0
 Suspicious Node,189,PTHP 23 RELIEF AIR NODE,Air,0
 Suspicious Node,190,PTHP 16 RELIEF AIR NODE,Air,0
 Suspicious Node,191,PTHP 5 RELIEF AIR NODE,Air,0
 Suspicious Node,192,PTHP 10 RELIEF AIR NODE,Air,0
 Suspicious Node,193,PTHP 20 RELIEF AIR NODE,Air,0
 Suspicious Node,194,PTHP 15 RELIEF AIR NODE,Air,0
 Suspicious Node,195,PTHP 9 RELIEF AIR NODE,Air,0
 Suspicious Node,196,PTHP 26 RELIEF AIR NODE,Air,0
 Suspicious Node,197,PTHP 24 RELIEF AIR NODE,Air,0
 Suspicious Node,198,PTHP 17 RELIEF AIR NODE,Air,0
 Suspicious Node,199,PTHP 18 RELIEF AIR NODE,Air,0
 Suspicious Node,200,PTHP 19 RELIEF AIR NODE,Air,0
 Suspicious Node,201,PTHP 22 RELIEF AIR NODE,Air,0
 Suspicious Node,202,PTHP 25 RELIEF AIR NODE,Air,0
 Suspicious Node,203,PTHP 1 RELIEF AIR NODE,Air,0
 Suspicious Node,204,PTHP 3 RELIEF AIR NODE,Air,0
 Suspicious Node,205,PTHP 2 RELIEF AIR NODE,Air,0
 Suspicious Node,206,PTHP 27 RELIEF AIR NODE,Air,0
 Suspicious Node,207,PTHP 14 RELIEF AIR NODE,Air,0
 Suspicious Node,208,PTHP 11 RELIEF AIR NODE,Air,0
 Suspicious Node,209,PTHP 6 RELIEF AIR NODE,Air,0
 Suspicious Node,210,PTHP 12 RELIEF AIR NODE,Air,0
 Suspicious Node,211,PTHP 7 RELIEF AIR NODE,Air,0
 Suspicious Node,212,PTHP 13 RELIEF AIR NODE,Air,0
 Suspicious Node,213,NODE 10,Air,0
 Suspicious Node,214,NODE 11,Air,0
 Suspicious Node,215,NODE 12,Air,0
 Suspicious Node,216,NODE 13,Air,0
 Suspicious Node,217,NODE 14,Air,0
 Suspicious Node,218,NODE 15,Air,0
 Suspicious Node,219,NODE 16,Air,0
 Suspicious Node,220,NODE 17,Air,0
 Suspicious Node,221,NODE 18,Air,0
 Suspicious Node,222,NODE 19,Air,0
 Suspicious Node,223,NODE 2,Air,0
 Suspicious Node,224,NODE 20,Air,0
 Suspicious Node,225,NODE 21,Air,0
 Suspicious Node,226,NODE 22,Air,0
 Suspicious Node,227,NODE 23,Air,0
 Suspicious Node,228,NODE 24,Air,0
 Suspicious Node,229,NODE 25,Air,0
 Suspicious Node,230,NODE 26,Air,0
 Suspicious Node,231,NODE 27,Air,0
 Suspicious Node,232,NODE 28,Air,0
 Suspicious Node,233,NODE 3,Air,0
 Suspicious Node,234,NODE 4,Air,0
 Suspicious Node,235,NODE 5,Air,0
 Suspicious Node,236,NODE 6,Air,0
 Suspicious Node,237,NODE 7,Air,0
 Suspicious Node,238,NODE 8,Air,0
 Suspicious Node,239,NODE 9,Air,0
! ===============================================================
! <#Branch Lists>,<Number of Branch Lists>
 #Branch Lists,2
! <Branch List>,<Branch List Count>,<Branch List Name>,<Loop Name>,<Loop Type>,<Number of Branches>
! <Branch>,<Branch Count>,<Branch Name>,<Loop Name>,<Loop Type>,<Branch Inlet Node Name>,<Branch Outlet Node Name>
 Branch List,1,SERVICE WATER LOOP SUPPLY BRANCHES,SERVICE WATER LOOP,Plant Supply,3
   Branch,1,SERVICE WATER LOOP SUPPLY INLET BRANCH,SERVICE WATER LOOP,Plant Supply,NODE 31,NODE 37
   Branch,2,SERVICE WATER LOOP SUPPLY BRANCH 1,SERVICE WATER LOOP,Plant Supply,NODE 33,NODE 38
   Branch,3,SERVICE WATER LOOP SUPPLY OUTLET BRANCH,SERVICE WATER LOOP,Plant Supply,SERVICE WATER LOOP SUPPLY OUTLET PIPE NODE,NODE 32
 Branch List,2,SERVICE WATER LOOP DEMAND BRANCHES,SERVICE WATER LOOP,Plant Demand,4
   Branch,1,SERVICE WATER LOOP DEMAND INLET BRANCH,SERVICE WATER LOOP,Plant Demand,NODE 34,SERVICE WATER LOOP DEMAND INLET PIPE NODE
   Branch,2,SERVICE WATER LOOP DEMAND BRANCH 1,SERVICE WATER LOOP,Plant Demand,NODE 36,NODE 39
   Branch,3,SERVICE WATER LOOP DEMAND BYPASS BRANCH,SERVICE WATER LOOP,Plant Demand,SERVICE WATER LOOP DEMAND BYPASS PIPE INLET NODE,SERVICE WATER LOOP DEMAND BYPASS PIPE OUTLET NODE
   Branch,4,SERVICE WATER LOOP DEMAND OUTLET BRANCH,SERVICE WATER LOOP,Plant Demand,SERVICE WATER LOOP DEMAND OUTLET PIPE NODE,NODE 35
! ===============================================================
! <#Supply Air Paths>,<Number of Supply Air Paths>
 #Supply Air Paths,0
! <Supply Air Path>,<Supply Air Path Count>,<Supply Air Path Name>,<AirLoopHVAC Name>
! <#Components on Supply Air Path>,<Number of Components>
! <Supply Air Path Component>,<Component Count>,<Component Type>,<Component Name>,<AirLoopHVAC Name>
! <#Outlet Nodes on Supply Air Path Component>,<Number of Nodes>
! <Supply Air Path Component Nodes>,<Node Count>,<Component Type>,<Component Name>,<Inlet Node Name>,<Outlet Node Name>,<AirLoopHVAC Name>
! ===============================================================
! <#Return Air Paths>,<Number of Return Air Paths>
 #Return Air Paths,0
! <Return Air Path>,<Return Air Path Count>,<Return Air Path Name>,<AirLoopHVAC Name>
! <#Components on Return Air Path>,<Number of Components>
! <Return Air Path Component>,<Component Count>,<Component Type>,<Component Name>,<AirLoopHVAC Name>
! <#Inlet Nodes on Return Air Path Component>,<Number of Nodes>
! <Return Air Path Component Nodes>,<Node Count>,<Component Type>,<Component Name>,<Inlet Node Name>,<Outlet Node Name>,<AirLoopHVAC Name>
! ===============================================================
! #Outdoor Air Nodes,<Number of Outdoor Air Nodes>
 #Outdoor Air Nodes,29
! <Outdoor Air Node>,<NodeNumber>,<Node Name>
 Outdoor Air Node,71,PTHP OA NODE
 Outdoor Air Node,72,PTHP 4 OA NODE
 Outdoor Air Node,73,PTHP 21 OA NODE
 Outdoor Air Node,74,PTHP 8 OA NODE
 Outdoor Air Node,75,PTHP 23 OA NODE
 Outdoor Air Node,76,PTHP 16 OA NODE
 Outdoor Air Node,77,PTHP 5 OA NODE
 Outdoor Air Node,78,PTHP 10 OA NODE
 Outdoor Air Node,79,PTHP 20 OA NODE
 Outdoor Air Node,80,PTHP 15 OA NODE
 Outdoor Air Node,81,PTHP 9 OA NODE
 Outdoor Air Node,82,PTHP 26 OA NODE
 Outdoor Air Node,83,PTHP 24 OA NODE
 Outdoor Air Node,84,PTHP 17 OA NODE
 Outdoor Air Node,85,PTHP 18 OA NODE
 Outdoor Air Node,86,PTHP 19 OA NODE
 Outdoor Air Node,87,PTHP 22 OA NODE
 Outdoor Air Node,88,PTHP 25 OA NODE
 Outdoor Air Node,89,PTHP 1 OA NODE
 Outdoor Air Node,90,PTHP 3 OA NODE
 Outdoor Air Node,91,PTHP 2 OA NODE
 Outdoor Air Node,92,PTHP 27 OA NODE
 Outdoor Air Node,93,PTHP 14 OA NODE
 Outdoor Air Node,94,PTHP 11 OA NODE
 Outdoor Air Node,95,PTHP 6 OA NODE
 Outdoor Air Node,96,PTHP 12 OA NODE
 Outdoor Air Node,97,PTHP 7 OA NODE
 Outdoor Air Node,98,PTHP 13 OA NODE
 Outdoor Air Node,99,MODEL OUTDOOR AIR NODE
! ===============================================================
! <#Component Sets>,<Number of Component Sets>
 #Component Sets,147
! <Component Set>,<Component Set Count>,<Parent Object Type>,<Parent Object Name>,<Component Type>,<Component Name>,<Inlet Node ID>,<Outlet Node ID>,<Description>
 Component Set,1,BRANCH,SERVICE WATER LOOP SUPPLY INLET BRANCH,PUMP:CONSTANTSPEED,PUMP CONSTANT SPEED 1,NODE 31,NODE 37,Water Nodes
 Component Set,2,BRANCH,SERVICE WATER LOOP SUPPLY BRANCH 1,WATERHEATER:MIXED,600 GAL WATER HEATER - 600 KBTU/HR,NODE 33,NODE 38,Use Side Water Nodes
 Component Set,3,BRANCH,SERVICE WATER LOOP SUPPLY OUTLET BRANCH,PIPE:ADIABATIC,SERVICE WATER LOOP SUPPLY OUTLET PIPE,SERVICE WATER LOOP SUPPLY OUTLET PIPE NODE,NODE 32,Pipe Nodes
 Component Set,4,BRANCH,SERVICE WATER LOOP DEMAND INLET BRANCH,PIPE:ADIABATIC,SERVICE WATER LOOP DEMAND INLET PIPE,NODE 34,SERVICE WATER LOOP DEMAND INLET PIPE NODE,Pipe Nodes
 Component Set,5,BRANCH,SERVICE WATER LOOP DEMAND BRANCH 1,WATERUSE:CONNECTIONS,ESTAR MFHR DHW WATER USE CONNECTION,NODE 36,NODE 39,DHW Nodes
 Component Set,6,BRANCH,SERVICE WATER LOOP DEMAND BYPASS BRANCH,PIPE:ADIABATIC,SERVICE WATER LOOP DEMAND BYPASS PIPE,SERVICE WATER LOOP DEMAND BYPASS PIPE INLET NODE,SERVICE WATER LOOP DEMAND BYPASS PIPE OUTLET NODE,Pipe Nodes
 Component Set,7,BRANCH,SERVICE WATER LOOP DEMAND OUTLET BRANCH,PIPE:ADIABATIC,SERVICE WATER LOOP DEMAND OUTLET PIPE,SERVICE WATER LOOP DEMAND OUTLET PIPE NODE,NODE 35,Pipe Nodes
 Component Set,8,ZONEHVAC:PACKAGEDTERMINALHEATPUMP,PTHP,COIL:COOLING:DX:SINGLESPEED,PTHP 1 SPD DX CLG COIL,PTHP MIXED AIR NODE,PTHP COOLING COIL OUTLET NODE,Air Nodes
 Component Set,9,ZONEHVAC:PACKAGEDTERMINALHEATPUMP,PTHP 4,COIL:COOLING:DX:SINGLESPEED,PTHP 1 SPD DX CLG COIL 4,PTHP 4 MIXED AIR NODE,PTHP 4 COOLING COIL OUTLET NODE,Air Nodes
 Component Set,10,ZONEHVAC:PACKAGEDTERMINALHEATPUMP,PTHP 21,COIL:COOLING:DX:SINGLESPEED,PTHP 1 SPD DX CLG COIL 21,PTHP 21 MIXED AIR NODE,PTHP 21 COOLING COIL OUTLET NODE,Air Nodes
 Component Set,11,ZONEHVAC:PACKAGEDTERMINALHEATPUMP,PTHP 8,COIL:COOLING:DX:SINGLESPEED,PTHP 1 SPD DX CLG COIL 8,PTHP 8 MIXED AIR NODE,PTHP 8 COOLING COIL OUTLET NODE,Air Nodes
 Component Set,12,ZONEHVAC:PACKAGEDTERMINALHEATPUMP,PTHP 23,COIL:COOLING:DX:SINGLESPEED,PTHP 1 SPD DX CLG COIL 23,PTHP 23 MIXED AIR NODE,PTHP 23 COOLING COIL OUTLET NODE,Air Nodes
 Component Set,13,ZONEHVAC:PACKAGEDTERMINALHEATPUMP,PTHP 16,COIL:COOLING:DX:SINGLESPEED,PTHP 1 SPD DX CLG COIL 16,PTHP 16 MIXED AIR NODE,PTHP 16 COOLING COIL OUTLET NODE,Air Nodes
 Component Set,14,ZONEHVAC:PACKAGEDTERMINALHEATPUMP,PTHP 5,COIL:COOLING:DX:SINGLESPEED,PTHP 1 SPD DX CLG COIL 5,PTHP 5 MIXED AIR NODE,PTHP 5 COOLING COIL OUTLET NODE,Air Nodes
 Component Set,15,ZONEHVAC:PACKAGEDTERMINALHEATPUMP,PTHP 10,COIL:COOLING:DX:SINGLESPEED,PTHP 1 SPD DX CLG COIL 10,PTHP 10 MIXED AIR NODE,PTHP 10 COOLING COIL OUTLET NODE,Air Nodes
 Component Set,16,ZONEHVAC:PACKAGEDTERMINALHEATPUMP,PTHP 20,COIL:COOLING:DX:SINGLESPEED,PTHP 1 SPD DX CLG COIL 20,PTHP 20 MIXED AIR NODE,PTHP 20 COOLING COIL OUTLET NODE,Air Nodes
 Component Set,17,ZONEHVAC:PACKAGEDTERMINALHEATPUMP,PTHP 15,COIL:COOLING:DX:SINGLESPEED,PTHP 1 SPD DX CLG COIL 15,PTHP 15 MIXED AIR NODE,PTHP 15 COOLING COIL OUTLET NODE,Air Nodes
 Component Set,18,ZONEHVAC:PACKAGEDTERMINALHEATPUMP,PTHP 9,COIL:COOLING:DX:SINGLESPEED,PTHP 1 SPD DX CLG COIL 9,PTHP 9 MIXED AIR NODE,PTHP 9 COOLING COIL OUTLET NODE,Air Nodes
 Component Set,19,ZONEHVAC:PACKAGEDTERMINALHEATPUMP,PTHP 26,COIL:COOLING:DX:SINGLESPEED,PTHP 1 SPD DX CLG COIL 26,PTHP 26 MIXED AIR NODE,PTHP 26 COOLING COIL OUTLET NODE,Air Nodes
 Component Set,20,ZONEHVAC:PACKAGEDTERMINALHEATPUMP,PTHP 24,COIL:COOLING:DX:SINGLESPEED,PTHP 1 SPD DX CLG COIL 24,PTHP 24 MIXED AIR NODE,PTHP 24 COOLING COIL OUTLET NODE,Air Nodes
 Component Set,21,ZONEHVAC:PACKAGEDTERMINALHEATPUMP,PTHP 17,COIL:COOLING:DX:SINGLESPEED,PTHP 1 SPD DX CLG COIL 17,PTHP 17 MIXED AIR NODE,PTHP 17 COOLING COIL OUTLET NODE,Air Nodes
 Component Set,22,ZONEHVAC:PACKAGEDTERMINALHEATPUMP,PTHP 18,COIL:COOLING:DX:SINGLESPEED,PTHP 1 SPD DX CLG COIL 18,PTHP 18 MIXED AIR NODE,PTHP 18 COOLING COIL OUTLET NODE,Air Nodes
 Component Set,23,ZONEHVAC:PACKAGEDTERMINALHEATPUMP,PTHP 19,COIL:COOLING:DX:SINGLESPEED,PTHP 1 SPD DX CLG COIL 19,PTHP 19 MIXED AIR NODE,PTHP 19 COOLING COIL OUTLET NODE,Air Nodes
 Component Set,24,ZONEHVAC:PACKAGEDTERMINALHEATPUMP,PTHP 22,COIL:COOLING:DX:SINGLESPEED,PTHP 1 SPD DX CLG COIL 22,PTHP 22 MIXED AIR NODE,PTHP 22 COOLING COIL OUTLET NODE,Air Nodes
 Component Set,25,ZONEHVAC:PACKAGEDTERMINALHEATPUMP,PTHP 25,COIL:COOLING:DX:SINGLESPEED,PTHP 1 SPD DX CLG COIL 25,PTHP 25 MIXED AIR NODE,PTHP 25 COOLING COIL OUTLET NODE,Air Nodes
 Component Set,26,ZONEHVAC:PACKAGEDTERMINALHEATPUMP,PTHP 1,COIL:COOLING:DX:SINGLESPEED,PTHP 1 SPD DX CLG COIL 1,PTHP 1 MIXED AIR NODE,PTHP 1 COOLING COIL OUTLET NODE,Air Nodes
 Component Set,27,ZONEHVAC:PACKAGEDTERMINALHEATPUMP,PTHP 3,COIL:COOLING:DX:SINGLESPEED,PTHP 1 SPD DX CLG COIL 3,PTHP 3 MIXED AIR NODE,PTHP 3 COOLING COIL OUTLET NODE,Air Nodes
 Component Set,28,ZONEHVAC:PACKAGEDTERMINALHEATPUMP,PTHP 2,COIL:COOLING:DX:SINGLESPEED,PTHP 1 SPD DX CLG COIL 2,PTHP 2 MIXED AIR NODE,PTHP 2 COOLING COIL OUTLET NODE,Air Nodes
 Component Set,29,ZONEHVAC:PACKAGEDTERMINALHEATPUMP,PTHP 27,COIL:COOLING:DX:SINGLESPEED,PTHP 1 SPD DX CLG COIL 27,PTHP 27 MIXED AIR NODE,PTHP 27 COOLING COIL OUTLET NODE,Air Nodes
 Component Set,30,ZONEHVAC:PACKAGEDTERMINALHEATPUMP,PTHP 14,COIL:COOLING:DX:SINGLESPEED,PTHP 1 SPD DX CLG COIL 14,PTHP 14 MIXED AIR NODE,PTHP 14 COOLING COIL OUTLET NODE,Air Nodes
 Component Set,31,ZONEHVAC:PACKAGEDTERMINALHEATPUMP,PTHP 11,COIL:COOLING:DX:SINGLESPEED,PTHP 1 SPD DX CLG COIL 11,PTHP 11 MIXED AIR NODE,PTHP 11 COOLING COIL OUTLET NODE,Air Nodes
 Component Set,32,ZONEHVAC:PACKAGEDTERMINALHEATPUMP,PTHP 6,COIL:COOLING:DX:SINGLESPEED,PTHP 1 SPD DX CLG COIL 6,PTHP 6 MIXED AIR NODE,PTHP 6 COOLING COIL OUTLET NODE,Air Nodes
 Component Set,33,ZONEHVAC:PACKAGEDTERMINALHEATPUMP,PTHP 12,COIL:COOLING:DX:SINGLESPEED,PTHP 1 SPD DX CLG COIL 12,PTHP 12 MIXED AIR NODE,PTHP 12 COOLING COIL OUTLET NODE,Air Nodes
 Component Set,34,ZONEHVAC:PACKAGEDTERMINALHEATPUMP,PTHP 7,COIL:COOLING:DX:SINGLESPEED,PTHP 1 SPD DX CLG COIL 7,PTHP 7 MIXED AIR NODE,PTHP 7 COOLING COIL OUTLET NODE,Air Nodes
 Component Set,35,ZONEHVAC:PACKAGEDTERMINALHEATPUMP,PTHP 13,COIL:COOLING:DX:SINGLESPEED,PTHP 1 SPD DX CLG COIL 13,PTHP 13 MIXED AIR NODE,PTHP 13 COOLING COIL OUTLET NODE,Air Nodes
 Component Set,36,ZONEHVAC:PACKAGEDTERMINALHEATPUMP,PTHP,COIL:HEATING:DX:SINGLESPEED,PTHP 1 SPD DX HTG COIL,PTHP COOLING COIL OUTLET NODE,PTHP HEATING COIL OUTLET NODE,Air Nodes
 Component Set,37,ZONEHVAC:PACKAGEDTERMINALHEATPUMP,PTHP 4,COIL:HEATING:DX:SINGLESPEED,PTHP 1 SPD DX HTG COIL 4,PTHP 4 COOLING COIL OUTLET NODE,PTHP 4 HEATING COIL OUTLET NODE,Air Nodes
 Component Set,38,ZONEHVAC:PACKAGEDTERMINALHEATPUMP,PTHP 21,COIL:HEATING:DX:SINGLESPEED,PTHP 1 SPD DX HTG COIL 21,PTHP 21 COOLING COIL OUTLET NODE,PTHP 21 HEATING COIL OUTLET NODE,Air Nodes
 Component Set,39,ZONEHVAC:PACKAGEDTERMINALHEATPUMP,PTHP 8,COIL:HEATING:DX:SINGLESPEED,PTHP 1 SPD DX HTG COIL 8,PTHP 8 COOLING COIL OUTLET NODE,PTHP 8 HEATING COIL OUTLET NODE,Air Nodes
 Component Set,40,ZONEHVAC:PACKAGEDTERMINALHEATPUMP,PTHP 23,COIL:HEATING:DX:SINGLESPEED,PTHP 1 SPD DX HTG COIL 23,PTHP 23 COOLING COIL OUTLET NODE,PTHP 23 HEATING COIL OUTLET NODE,Air Nodes
 Component Set,41,ZONEHVAC:PACKAGEDTERMINALHEATPUMP,PTHP 16,COIL:HEATING:DX:SINGLESPEED,PTHP 1 SPD DX HTG COIL 16,PTHP 16 COOLING COIL OUTLET NODE,PTHP 16 HEATING COIL OUTLET NODE,Air Nodes
 Component Set,42,ZONEHVAC:PACKAGEDTERMINALHEATPUMP,PTHP 5,COIL:HEATING:DX:SINGLESPEED,PTHP 1 SPD DX HTG COIL 5,PTHP 5 COOLING COIL OUTLET NODE,PTHP 5 HEATING COIL OUTLET NODE,Air Nodes
 Component Set,43,ZONEHVAC:PACKAGEDTERMINALHEATPUMP,PTHP 10,COIL:HEATING:DX:SINGLESPEED,PTHP 1 SPD DX HTG COIL 10,PTHP 10 COOLING COIL OUTLET NODE,PTHP 10 HEATING COIL OUTLET NODE,Air Nodes
 Component Set,44,ZONEHVAC:PACKAGEDTERMINALHEATPUMP,PTHP 20,COIL:HEATING:DX:SINGLESPEED,PTHP 1 SPD DX HTG COIL 20,PTHP 20 COOLING COIL OUTLET NODE,PTHP 20 HEATING COIL OUTLET NODE,Air Nodes
 Component Set,45,ZONEHVAC:PACKAGEDTERMINALHEATPUMP,PTHP 15,COIL:HEATING:DX:SINGLESPEED,PTHP 1 SPD DX HTG COIL 15,PTHP 15 COOLING COIL OUTLET NODE,PTHP 15 HEATING COIL OUTLET NODE,Air Nodes
 Component Set,46,ZONEHVAC:PACKAGEDTERMINALHEATPUMP,PTHP 9,COIL:HEATING:DX:SINGLESPEED,PTHP 1 SPD DX HTG COIL 9,PTHP 9 COOLING COIL OUTLET NODE,PTHP 9 HEATING COIL OUTLET NODE,Air Nodes
 Component Set,47,ZONEHVAC:PACKAGEDTERMINALHEATPUMP,PTHP 26,COIL:HEATING:DX:SINGLESPEED,PTHP 1 SPD DX HTG COIL 26,PTHP 26 COOLING COIL OUTLET NODE,PTHP 26 HEATING COIL OUTLET NODE,Air Nodes
 Component Set,48,ZONEHVAC:PACKAGEDTERMINALHEATPUMP,PTHP 24,COIL:HEATING:DX:SINGLESPEED,PTHP 1 SPD DX HTG COIL 24,PTHP 24 COOLING COIL OUTLET NODE,PTHP 24 HEATING COIL OUTLET NODE,Air Nodes
 Component Set,49,ZONEHVAC:PACKAGEDTERMINALHEATPUMP,PTHP 17,COIL:HEATING:DX:SINGLESPEED,PTHP 1 SPD DX HTG COIL 17,PTHP 17 COOLING COIL OUTLET NODE,PTHP 17 HEATING COIL OUTLET NODE,Air Nodes
 Component Set,50,ZONEHVAC:PACKAGEDTERMINALHEATPUMP,PTHP 18,COIL:HEATING:DX:SINGLESPEED,PTHP 1 SPD DX HTG COIL 18,PTHP 18 COOLING COIL OUTLET NODE,PTHP 18 HEATING COIL OUTLET NODE,Air Nodes
 Component Set,51,ZONEHVAC:PACKAGEDTERMINALHEATPUMP,PTHP 19,COIL:HEATING:DX:SINGLESPEED,PTHP 1 SPD DX HTG COIL 19,PTHP 19 COOLING COIL OUTLET NODE,PTHP 19 HEATING COIL OUTLET NODE,Air Nodes
 Component Set,52,ZONEHVAC:PACKAGEDTERMINALHEATPUMP,PTHP 22,COIL:HEATING:DX:SINGLESPEED,PTHP 1 SPD DX HTG COIL 22,PTHP 22 COOLING COIL OUTLET NODE,PTHP 22 HEATING COIL OUTLET NODE,Air Nodes
 Component Set,53,ZONEHVAC:PACKAGEDTERMINALHEATPUMP,PTHP 25,COIL:HEATING:DX:SINGLESPEED,PTHP 1 SPD DX HTG COIL 25,PTHP 25 COOLING COIL OUTLET NODE,PTHP 25 HEATING COIL OUTLET NODE,Air Nodes
 Component Set,54,ZONEHVAC:PACKAGEDTERMINALHEATPUMP,PTHP 1,COIL:HEATING:DX:SINGLESPEED,PTHP 1 SPD DX HTG COIL 1,PTHP 1 COOLING COIL OUTLET NODE,PTHP 1 HEATING COIL OUTLET NODE,Air Nodes
 Component Set,55,ZONEHVAC:PACKAGEDTERMINALHEATPUMP,PTHP 3,COIL:HEATING:DX:SINGLESPEED,PTHP 1 SPD DX HTG COIL 3,PTHP 3 COOLING COIL OUTLET NODE,PTHP 3 HEATING COIL OUTLET NODE,Air Nodes
 Component Set,56,ZONEHVAC:PACKAGEDTERMINALHEATPUMP,PTHP 2,COIL:HEATING:DX:SINGLESPEED,PTHP 1 SPD DX HTG COIL 2,PTHP 2 COOLING COIL OUTLET NODE,PTHP 2 HEATING COIL OUTLET NODE,Air Nodes
 Component Set,57,ZONEHVAC:PACKAGEDTERMINALHEATPUMP,PTHP 27,COIL:HEATING:DX:SINGLESPEED,PTHP 1 SPD DX HTG COIL 27,PTHP 27 COOLING COIL OUTLET NODE,PTHP 27 HEATING COIL OUTLET NODE,Air Nodes
 Component Set,58,ZONEHVAC:PACKAGEDTERMINALHEATPUMP,PTHP 14,COIL:HEATING:DX:SINGLESPEED,PTHP 1 SPD DX HTG COIL 14,PTHP 14 COOLING COIL OUTLET NODE,PTHP 14 HEATING COIL OUTLET NODE,Air Nodes
 Component Set,59,ZONEHVAC:PACKAGEDTERMINALHEATPUMP,PTHP 11,COIL:HEATING:DX:SINGLESPEED,PTHP 1 SPD DX HTG COIL 11,PTHP 11 COOLING COIL OUTLET NODE,PTHP 11 HEATING COIL OUTLET NODE,Air Nodes
 Component Set,60,ZONEHVAC:PACKAGEDTERMINALHEATPUMP,PTHP 6,COIL:HEATING:DX:SINGLESPEED,PTHP 1 SPD DX HTG COIL 6,PTHP 6 COOLING COIL OUTLET NODE,PTHP 6 HEATING COIL OUTLET NODE,Air Nodes
 Component Set,61,ZONEHVAC:PACKAGEDTERMINALHEATPUMP,PTHP 12,COIL:HEATING:DX:SINGLESPEED,PTHP 1 SPD DX HTG COIL 12,PTHP 12 COOLING COIL OUTLET NODE,PTHP 12 HEATING COIL OUTLET NODE,Air Nodes
 Component Set,62,ZONEHVAC:PACKAGEDTERMINALHEATPUMP,PTHP 7,COIL:HEATING:DX:SINGLESPEED,PTHP 1 SPD DX HTG COIL 7,PTHP 7 COOLING COIL OUTLET NODE,PTHP 7 HEATING COIL OUTLET NODE,Air Nodes
 Component Set,63,ZONEHVAC:PACKAGEDTERMINALHEATPUMP,PTHP 13,COIL:HEATING:DX:SINGLESPEED,PTHP 1 SPD DX HTG COIL 13,PTHP 13 COOLING COIL OUTLET NODE,PTHP 13 HEATING COIL OUTLET NODE,Air Nodes
 Component Set,64,ZONEHVAC:PACKAGEDTERMINALHEATPUMP,PTHP,OUTDOORAIR:MIXER,PTHP OA MIXER,PTHP OA NODE,PTHP MIXED AIR NODE,Air Nodes
 Component Set,65,ZONEHVAC:PACKAGEDTERMINALHEATPUMP,PTHP 4,OUTDOORAIR:MIXER,PTHP 4 OA MIXER,PTHP 4 OA NODE,PTHP 4 MIXED AIR NODE,Air Nodes
 Component Set,66,ZONEHVAC:PACKAGEDTERMINALHEATPUMP,PTHP 21,OUTDOORAIR:MIXER,PTHP 21 OA MIXER,PTHP 21 OA NODE,PTHP 21 MIXED AIR NODE,Air Nodes
 Component Set,67,ZONEHVAC:PACKAGEDTERMINALHEATPUMP,PTHP 8,OUTDOORAIR:MIXER,PTHP 8 OA MIXER,PTHP 8 OA NODE,PTHP 8 MIXED AIR NODE,Air Nodes
 Component Set,68,ZONEHVAC:PACKAGEDTERMINALHEATPUMP,PTHP 23,OUTDOORAIR:MIXER,PTHP 23 OA MIXER,PTHP 23 OA NODE,PTHP 23 MIXED AIR NODE,Air Nodes
 Component Set,69,ZONEHVAC:PACKAGEDTERMINALHEATPUMP,PTHP 16,OUTDOORAIR:MIXER,PTHP 16 OA MIXER,PTHP 16 OA NODE,PTHP 16 MIXED AIR NODE,Air Nodes
 Component Set,70,ZONEHVAC:PACKAGEDTERMINALHEATPUMP,PTHP 5,OUTDOORAIR:MIXER,PTHP 5 OA MIXER,PTHP 5 OA NODE,PTHP 5 MIXED AIR NODE,Air Nodes
 Component Set,71,ZONEHVAC:PACKAGEDTERMINALHEATPUMP,PTHP 10,OUTDOORAIR:MIXER,PTHP 10 OA MIXER,PTHP 10 OA NODE,PTHP 10 MIXED AIR NODE,Air Nodes
 Component Set,72,ZONEHVAC:PACKAGEDTERMINALHEATPUMP,PTHP 20,OUTDOORAIR:MIXER,PTHP 20 OA MIXER,PTHP 20 OA NODE,PTHP 20 MIXED AIR NODE,Air Nodes
 Component Set,73,ZONEHVAC:PACKAGEDTERMINALHEATPUMP,PTHP 15,OUTDOORAIR:MIXER,PTHP 15 OA MIXER,PTHP 15 OA NODE,PTHP 15 MIXED AIR NODE,Air Nodes
 Component Set,74,ZONEHVAC:PACKAGEDTERMINALHEATPUMP,PTHP 9,OUTDOORAIR:MIXER,PTHP 9 OA MIXER,PTHP 9 OA NODE,PTHP 9 MIXED AIR NODE,Air Nodes
 Component Set,75,ZONEHVAC:PACKAGEDTERMINALHEATPUMP,PTHP 26,OUTDOORAIR:MIXER,PTHP 26 OA MIXER,PTHP 26 OA NODE,PTHP 26 MIXED AIR NODE,Air Nodes
 Component Set,76,ZONEHVAC:PACKAGEDTERMINALHEATPUMP,PTHP 24,OUTDOORAIR:MIXER,PTHP 24 OA MIXER,PTHP 24 OA NODE,PTHP 24 MIXED AIR NODE,Air Nodes
 Component Set,77,ZONEHVAC:PACKAGEDTERMINALHEATPUMP,PTHP 17,OUTDOORAIR:MIXER,PTHP 17 OA MIXER,PTHP 17 OA NODE,PTHP 17 MIXED AIR NODE,Air Nodes
 Component Set,78,ZONEHVAC:PACKAGEDTERMINALHEATPUMP,PTHP 18,OUTDOORAIR:MIXER,PTHP 18 OA MIXER,PTHP 18 OA NODE,PTHP 18 MIXED AIR NODE,Air Nodes
 Component Set,79,ZONEHVAC:PACKAGEDTERMINALHEATPUMP,PTHP 19,OUTDOORAIR:MIXER,PTHP 19 OA MIXER,PTHP 19 OA NODE,PTHP 19 MIXED AIR NODE,Air Nodes
 Component Set,80,ZONEHVAC:PACKAGEDTERMINALHEATPUMP,PTHP 22,OUTDOORAIR:MIXER,PTHP 22 OA MIXER,PTHP 22 OA NODE,PTHP 22 MIXED AIR NODE,Air Nodes
 Component Set,81,ZONEHVAC:PACKAGEDTERMINALHEATPUMP,PTHP 25,OUTDOORAIR:MIXER,PTHP 25 OA MIXER,PTHP 25 OA NODE,PTHP 25 MIXED AIR NODE,Air Nodes
 Component Set,82,ZONEHVAC:PACKAGEDTERMINALHEATPUMP,PTHP 1,OUTDOORAIR:MIXER,PTHP 1 OA MIXER,PTHP 1 OA NODE,PTHP 1 MIXED AIR NODE,Air Nodes
 Component Set,83,ZONEHVAC:PACKAGEDTERMINALHEATPUMP,PTHP 3,OUTDOORAIR:MIXER,PTHP 3 OA MIXER,PTHP 3 OA NODE,PTHP 3 MIXED AIR NODE,Air Nodes
 Component Set,84,ZONEHVAC:PACKAGEDTERMINALHEATPUMP,PTHP 2,OUTDOORAIR:MIXER,PTHP 2 OA MIXER,PTHP 2 OA NODE,PTHP 2 MIXED AIR NODE,Air Nodes
 Component Set,85,ZONEHVAC:PACKAGEDTERMINALHEATPUMP,PTHP 27,OUTDOORAIR:MIXER,PTHP 27 OA MIXER,PTHP 27 OA NODE,PTHP 27 MIXED AIR NODE,Air Nodes
 Component Set,86,ZONEHVAC:PACKAGEDTERMINALHEATPUMP,PTHP 14,OUTDOORAIR:MIXER,PTHP 14 OA MIXER,PTHP 14 OA NODE,PTHP 14 MIXED AIR NODE,Air Nodes
 Component Set,87,ZONEHVAC:PACKAGEDTERMINALHEATPUMP,PTHP 11,OUTDOORAIR:MIXER,PTHP 11 OA MIXER,PTHP 11 OA NODE,PTHP 11 MIXED AIR NODE,Air Nodes
 Component Set,88,ZONEHVAC:PACKAGEDTERMINALHEATPUMP,PTHP 6,OUTDOORAIR:MIXER,PTHP 6 OA MIXER,PTHP 6 OA NODE,PTHP 6 MIXED AIR NODE,Air Nodes
 Component Set,89,ZONEHVAC:PACKAGEDTERMINALHEATPUMP,PTHP 12,OUTDOORAIR:MIXER,PTHP 12 OA MIXER,PTHP 12 OA NODE,PTHP 12 MIXED AIR NODE,Air Nodes
 Component Set,90,ZONEHVAC:PACKAGEDTERMINALHEATPUMP,PTHP 7,OUTDOORAIR:MIXER,PTHP 7 OA MIXER,PTHP 7 OA NODE,PTHP 7 MIXED AIR NODE,Air Nodes
 Component Set,91,ZONEHVAC:PACKAGEDTERMINALHEATPUMP,PTHP 13,OUTDOORAIR:MIXER,PTHP 13 OA MIXER,PTHP 13 OA NODE,PTHP 13 MIXED AIR NODE,Air Nodes
 Component Set,92,ZONEHVAC:PACKAGEDTERMINALHEATPUMP,PTHP,FAN:CONSTANTVOLUME,PTHP CV FAN,PTHP HEATING COIL OUTLET NODE,PTHP FAN OUTLET NODE,Air Nodes
 Component Set,93,ZONEHVAC:PACKAGEDTERMINALHEATPUMP,PTHP 4,FAN:CONSTANTVOLUME,PTHP CV FAN 4,PTHP 4 HEATING COIL OUTLET NODE,PTHP 4 FAN OUTLET NODE,Air Nodes
 Component Set,94,ZONEHVAC:PACKAGEDTERMINALHEATPUMP,PTHP 21,FAN:CONSTANTVOLUME,PTHP CV FAN 21,PTHP 21 HEATING COIL OUTLET NODE,PTHP 21 FAN OUTLET NODE,Air Nodes
 Component Set,95,ZONEHVAC:PACKAGEDTERMINALHEATPUMP,PTHP 8,FAN:CONSTANTVOLUME,PTHP CV FAN 8,PTHP 8 HEATING COIL OUTLET NODE,PTHP 8 FAN OUTLET NODE,Air Nodes
 Component Set,96,ZONEHVAC:PACKAGEDTERMINALHEATPUMP,PTHP 23,FAN:CONSTANTVOLUME,PTHP CV FAN 23,PTHP 23 HEATING COIL OUTLET NODE,PTHP 23 FAN OUTLET NODE,Air Nodes
 Component Set,97,ZONEHVAC:PACKAGEDTERMINALHEATPUMP,PTHP 16,FAN:CONSTANTVOLUME,PTHP CV FAN 16,PTHP 16 HEATING COIL OUTLET NODE,PTHP 16 FAN OUTLET NODE,Air Nodes
 Component Set,98,ZONEHVAC:PACKAGEDTERMINALHEATPUMP,PTHP 5,FAN:CONSTANTVOLUME,PTHP CV FAN 5,PTHP 5 HEATING COIL OUTLET NODE,PTHP 5 FAN OUTLET NODE,Air Nodes
 Component Set,99,ZONEHVAC:PACKAGEDTERMINALHEATPUMP,PTHP 10,FAN:CONSTANTVOLUME,PTHP CV FAN 10,PTHP 10 HEATING COIL OUTLET NODE,PTHP 10 FAN OUTLET NODE,Air Nodes
 Component Set,100,ZONEHVAC:PACKAGEDTERMINALHEATPUMP,PTHP 20,FAN:CONSTANTVOLUME,PTHP CV FAN 20,PTHP 20 HEATING COIL OUTLET NODE,PTHP 20 FAN OUTLET NODE,Air Nodes
 Component Set,101,ZONEHVAC:PACKAGEDTERMINALHEATPUMP,PTHP 15,FAN:CONSTANTVOLUME,PTHP CV FAN 15,PTHP 15 HEATING COIL OUTLET NODE,PTHP 15 FAN OUTLET NODE,Air Nodes
 Component Set,102,ZONEHVAC:PACKAGEDTERMINALHEATPUMP,PTHP 9,FAN:CONSTANTVOLUME,PTHP CV FAN 9,PTHP 9 HEATING COIL OUTLET NODE,PTHP 9 FAN OUTLET NODE,Air Nodes
 Component Set,103,ZONEHVAC:PACKAGEDTERMINALHEATPUMP,PTHP 26,FAN:CONSTANTVOLUME,PTHP CV FAN 26,PTHP 26 HEATING COIL OUTLET NODE,PTHP 26 FAN OUTLET NODE,Air Nodes
 Component Set,104,ZONEHVAC:PACKAGEDTERMINALHEATPUMP,PTHP 24,FAN:CONSTANTVOLUME,PTHP CV FAN 24,PTHP 24 HEATING COIL OUTLET NODE,PTHP 24 FAN OUTLET NODE,Air Nodes
 Component Set,105,ZONEHVAC:PACKAGEDTERMINALHEATPUMP,PTHP 17,FAN:CONSTANTVOLUME,PTHP CV FAN 17,PTHP 17 HEATING COIL OUTLET NODE,PTHP 17 FAN OUTLET NODE,Air Nodes
 Component Set,106,ZONEHVAC:PACKAGEDTERMINALHEATPUMP,PTHP 18,FAN:CONSTANTVOLUME,PTHP CV FAN 18,PTHP 18 HEATING COIL OUTLET NODE,PTHP 18 FAN OUTLET NODE,Air Nodes
 Component Set,107,ZONEHVAC:PACKAGEDTERMINALHEATPUMP,PTHP 19,FAN:CONSTANTVOLUME,PTHP CV FAN 19,PTHP 19 HEATING COIL OUTLET NODE,PTHP 19 FAN OUTLET NODE,Air Nodes
 Component Set,108,ZONEHVAC:PACKAGEDTERMINALHEATPUMP,PTHP 22,FAN:CONSTANTVOLUME,PTHP CV FAN 22,PTHP 22 HEATING COIL OUTLET NODE,PTHP 22 FAN OUTLET NODE,Air Nodes
 Component Set,109,ZONEHVAC:PACKAGEDTERMINALHEATPUMP,PTHP 25,FAN:CONSTANTVOLUME,PTHP CV FAN 25,PTHP 25 HEATING COIL OUTLET NODE,PTHP 25 FAN OUTLET NODE,Air Nodes
 Component Set,110,ZONEHVAC:PACKAGEDTERMINALHEATPUMP,PTHP 1,FAN:CONSTANTVOLUME,PTHP CV FAN 1,PTHP 1 HEATING COIL OUTLET NODE,PTHP 1 FAN OUTLET NODE,Air Nodes
 Component Set,111,ZONEHVAC:PACKAGEDTERMINALHEATPUMP,PTHP 3,FAN:CONSTANTVOLUME,PTHP CV FAN 3,PTHP 3 HEATING COIL OUTLET NODE,PTHP 3 FAN OUTLET NODE,Air Nodes
 Component Set,112,ZONEHVAC:PACKAGEDTERMINALHEATPUMP,PTHP 2,FAN:CONSTANTVOLUME,PTHP CV FAN 2,PTHP 2 HEATING COIL OUTLET NODE,PTHP 2 FAN OUTLET NODE,Air Nodes
 Component Set,113,ZONEHVAC:PACKAGEDTERMINALHEATPUMP,PTHP 27,FAN:CONSTANTVOLUME,PTHP CV FAN 27,PTHP 27 HEATING COIL OUTLET NODE,PTHP 27 FAN OUTLET NODE,Air Nodes
 Component Set,114,ZONEHVAC:PACKAGEDTERMINALHEATPUMP,PTHP 14,FAN:CONSTANTVOLUME,PTHP CV FAN 14,PTHP 14 HEATING COIL OUTLET NODE,PTHP 14 FAN OUTLET NODE,Air Nodes
 Component Set,115,ZONEHVAC:PACKAGEDTERMINALHEATPUMP,PTHP 11,FAN:CONSTANTVOLUME,PTHP CV FAN 11,PTHP 11 HEATING COIL OUTLET NODE,PTHP 11 FAN OUTLET NODE,Air Nodes
 Component Set,116,ZONEHVAC:PACKAGEDTERMINALHEATPUMP,PTHP 6,FAN:CONSTANTVOLUME,PTHP CV FAN 6,PTHP 6 HEATING COIL OUTLET NODE,PTHP 6 FAN OUTLET NODE,Air Nodes
 Component Set,117,ZONEHVAC:PACKAGEDTERMINALHEATPUMP,PTHP 12,FAN:CONSTANTVOLUME,PTHP CV FAN 12,PTHP 12 HEATING COIL OUTLET NODE,PTHP 12 FAN OUTLET NODE,Air Nodes
 Component Set,118,ZONEHVAC:PACKAGEDTERMINALHEATPUMP,PTHP 7,FAN:CONSTANTVOLUME,PTHP CV FAN 7,PTHP 7 HEATING COIL OUTLET NODE,PTHP 7 FAN OUTLET NODE,Air Nodes
 Component Set,119,ZONEHVAC:PACKAGEDTERMINALHEATPUMP,PTHP 13,FAN:CONSTANTVOLUME,PTHP CV FAN 13,PTHP 13 HEATING COIL OUTLET NODE,PTHP 13 FAN OUTLET NODE,Air Nodes
 Component Set,120,ZONEHVAC:PACKAGEDTERMINALHEATPUMP,PTHP,COIL:HEATING:ELECTRIC,PTHP ELEC HTG BACKUP COIL,PTHP FAN OUTLET NODE,NODE 30,Air Nodes
 Component Set,121,ZONEHVAC:PACKAGEDTERMINALHEATPUMP,PTHP 4,COIL:HEATING:ELECTRIC,PTHP ELEC HTG BACKUP COIL 4,PTHP 4 FAN OUTLET NODE,NODE 47,Air Nodes
 Component Set,122,ZONEHVAC:PACKAGEDTERMINALHEATPUMP,PTHP 21,COIL:HEATING:ELECTRIC,PTHP ELEC HTG BACKUP COIL 21,PTHP 21 FAN OUTLET NODE,NODE 81,Air Nodes
 Component Set,123,ZONEHVAC:PACKAGEDTERMINALHEATPUMP,PTHP 8,COIL:HEATING:ELECTRIC,PTHP ELEC HTG BACKUP COIL 8,PTHP 8 FAN OUTLET NODE,NODE 55,Air Nodes
 Component Set,124,ZONEHVAC:PACKAGEDTERMINALHEATPUMP,PTHP 23,COIL:HEATING:ELECTRIC,PTHP ELEC HTG BACKUP COIL 23,PTHP 23 FAN OUTLET NODE,NODE 85,Air Nodes
 Component Set,125,ZONEHVAC:PACKAGEDTERMINALHEATPUMP,PTHP 16,COIL:HEATING:ELECTRIC,PTHP ELEC HTG BACKUP COIL 16,PTHP 16 FAN OUTLET NODE,NODE 71,Air Nodes
 Component Set,126,ZONEHVAC:PACKAGEDTERMINALHEATPUMP,PTHP 5,COIL:HEATING:ELECTRIC,PTHP ELEC HTG BACKUP COIL 5,PTHP 5 FAN OUTLET NODE,NODE 49,Air Nodes
 Component Set,127,ZONEHVAC:PACKAGEDTERMINALHEATPUMP,PTHP 10,COIL:HEATING:ELECTRIC,PTHP ELEC HTG BACKUP COIL 10,PTHP 10 FAN OUTLET NODE,NODE 59,Air Nodes
 Component Set,128,ZONEHVAC:PACKAGEDTERMINALHEATPUMP,PTHP 20,COIL:HEATING:ELECTRIC,PTHP ELEC HTG BACKUP COIL 20,PTHP 20 FAN OUTLET NODE,NODE 79,Air Nodes
 Component Set,129,ZONEHVAC:PACKAGEDTERMINALHEATPUMP,PTHP 15,COIL:HEATING:ELECTRIC,PTHP ELEC HTG BACKUP COIL 15,PTHP 15 FAN OUTLET NODE,NODE 69,Air Nodes
 Component Set,130,ZONEHVAC:PACKAGEDTERMINALHEATPUMP,PTHP 9,COIL:HEATING:ELECTRIC,PTHP ELEC HTG BACKUP COIL 9,PTHP 9 FAN OUTLET NODE,NODE 57,Air Nodes
 Component Set,131,ZONEHVAC:PACKAGEDTERMINALHEATPUMP,PTHP 26,COIL:HEATING:ELECTRIC,PTHP ELEC HTG BACKUP COIL 26,PTHP 26 FAN OUTLET NODE,NODE 91,Air Nodes
 Component Set,132,ZONEHVAC:PACKAGEDTERMINALHEATPUMP,PTHP 24,COIL:HEATING:ELECTRIC,PTHP ELEC HTG BACKUP COIL 24,PTHP 24 FAN OUTLET NODE,NODE 87,Air Nodes
 Component Set,133,ZONEHVAC:PACKAGEDTERMINALHEATPUMP,PTHP 17,COIL:HEATING:ELECTRIC,PTHP ELEC HTG BACKUP COIL 17,PTHP 17 FAN OUTLET NODE,NODE 73,Air Nodes
 Component Set,134,ZONEHVAC:PACKAGEDTERMINALHEATPUMP,PTHP 18,COIL:HEATING:ELECTRIC,PTHP ELEC HTG BACKUP COIL 18,PTHP 18 FAN OUTLET NODE,NODE 75,Air Nodes
 Component Set,135,ZONEHVAC:PACKAGEDTERMINALHEATPUMP,PTHP 19,COIL:HEATING:ELECTRIC,PTHP ELEC HTG BACKUP COIL 19,PTHP 19 FAN OUTLET NODE,NODE 77,Air Nodes
 Component Set,136,ZONEHVAC:PACKAGEDTERMINALHEATPUMP,PTHP 22,COIL:HEATING:ELECTRIC,PTHP ELEC HTG BACKUP COIL 22,PTHP 22 FAN OUTLET NODE,NODE 83,Air Nodes
 Component Set,137,ZONEHVAC:PACKAGEDTERMINALHEATPUMP,PTHP 25,COIL:HEATING:ELECTRIC,PTHP ELEC HTG BACKUP COIL 25,PTHP 25 FAN OUTLET NODE,NODE 89,Air Nodes
 Component Set,138,ZONEHVAC:PACKAGEDTERMINALHEATPUMP,PTHP 1,COIL:HEATING:ELECTRIC,PTHP ELEC HTG BACKUP COIL 1,PTHP 1 FAN OUTLET NODE,NODE 41,Air Nodes
 Component Set,139,ZONEHVAC:PACKAGEDTERMINALHEATPUMP,PTHP 3,COIL:HEATING:ELECTRIC,PTHP ELEC HTG BACKUP COIL 3,PTHP 3 FAN OUTLET NODE,NODE 45,Air Nodes
 Component Set,140,ZONEHVAC:PACKAGEDTERMINALHEATPUMP,PTHP 2,COIL:HEATING:ELECTRIC,PTHP ELEC HTG BACKUP COIL 2,PTHP 2 FAN OUTLET NODE,NODE 43,Air Nodes
 Component Set,141,ZONEHVAC:PACKAGEDTERMINALHEATPUMP,PTHP 27,COIL:HEATING:ELECTRIC,PTHP ELEC HTG BACKUP COIL 27,PTHP 27 FAN OUTLET NODE,NODE 93,Air Nodes
 Component Set,142,ZONEHVAC:PACKAGEDTERMINALHEATPUMP,PTHP 14,COIL:HEATING:ELECTRIC,PTHP ELEC HTG BACKUP COIL 14,PTHP 14 FAN OUTLET NODE,NODE 67,Air Nodes
 Component Set,143,ZONEHVAC:PACKAGEDTERMINALHEATPUMP,PTHP 11,COIL:HEATING:ELECTRIC,PTHP ELEC HTG BACKUP COIL 11,PTHP 11 FAN OUTLET NODE,NODE 61,Air Nodes
 Component Set,144,ZONEHVAC:PACKAGEDTERMINALHEATPUMP,PTHP 6,COIL:HEATING:ELECTRIC,PTHP ELEC HTG BACKUP COIL 6,PTHP 6 FAN OUTLET NODE,NODE 51,Air Nodes
 Component Set,145,ZONEHVAC:PACKAGEDTERMINALHEATPUMP,PTHP 12,COIL:HEATING:ELECTRIC,PTHP ELEC HTG BACKUP COIL 12,PTHP 12 FAN OUTLET NODE,NODE 63,Air Nodes
 Component Set,146,ZONEHVAC:PACKAGEDTERMINALHEATPUMP,PTHP 7,COIL:HEATING:ELECTRIC,PTHP ELEC HTG BACKUP COIL 7,PTHP 7 FAN OUTLET NODE,NODE 53,Air Nodes
 Component Set,147,ZONEHVAC:PACKAGEDTERMINALHEATPUMP,PTHP 13,COIL:HEATING:ELECTRIC,PTHP ELEC HTG BACKUP COIL 13,PTHP 13 FAN OUTLET NODE,NODE 65,Air Nodes
! ===============================================================
! <# Plant Loops>,<Number of Plant Loops>
 #Plant Loops,1
! <Plant Loop>,<Plant Loop Name>,<Loop Type>,<Inlet Node Name>,<Outlet Node Name>,<Branch List>,<Connector List>
! <Plant Loop Connector>,<Connector Type>,<Connector Name>,<Loop Name>,<Loop Type>,<Number of Inlets/Outlets>
! <Plant Loop Connector Branches>,<Connector Node Count>,<Connector Type>,<Connector Name>,<Inlet Branch>,<Outlet Branch>,<Loop Name>,<Loop Type>
! <Plant Loop Connector Nodes>,<Connector Node Count>,<Connector Type>,<Connector Name>,<Inlet Node>,<Outlet Node>,<Loop Name>,<Loop Type>
! <Plant Loop Supply Connection>,<Plant Loop Name>,<Supply Side Outlet Node Name>,<Demand Side Inlet Node Name>
! <Plant Loop Return Connection>,<Plant Loop Name>,<Demand Side Outlet Node Name>,<Supply Side Inlet Node Name>
 Plant Loop,SERVICE WATER LOOP,Demand,NODE 34,NODE 35,SERVICE WATER LOOP DEMAND BRANCHES,SERVICE WATER LOOP DEMAND CONNECTOR LIST
   Plant Loop Connector,Splitter,SERVICE WATER LOOP DEMAND SPLITTER,SERVICE WATER LOOP,Demand,2
     Plant Loop Connector Branches,1,Splitter,SERVICE WATER LOOP DEMAND SPLITTER,SERVICE WATER LOOP DEMAND INLET BRANCH,SERVICE WATER LOOP DEMAND BRANCH 1,SERVICE WATER LOOP,Demand
     Plant Loop Connector Nodes,   1,Splitter,SERVICE WATER LOOP DEMAND SPLITTER,SERVICE WATER LOOP DEMAND INLET PIPE NODE,NODE 36,SERVICE WATER LOOP,Demand
     Plant Loop Connector Branches,2,Splitter,SERVICE WATER LOOP DEMAND SPLITTER,SERVICE WATER LOOP DEMAND INLET BRANCH,SERVICE WATER LOOP DEMAND BYPASS BRANCH,SERVICE WATER LOOP,Demand
     Plant Loop Connector Nodes,   2,Splitter,SERVICE WATER LOOP DEMAND SPLITTER,SERVICE WATER LOOP DEMAND INLET PIPE NODE,SERVICE WATER LOOP DEMAND BYPASS PIPE INLET NODE,SERVICE WATER LOOP,Demand
   Plant Loop Connector,Mixer,SERVICE WATER LOOP DEMAND MIXER,SERVICE WATER LOOP,Demand,2
     Plant Loop Connector Branches,1,Mixer,SERVICE WATER LOOP DEMAND MIXER,SERVICE WATER LOOP DEMAND BRANCH 1,SERVICE WATER LOOP DEMAND OUTLET BRANCH,SERVICE WATER LOOP,Demand
     Plant Loop Connector Nodes,   1,Mixer,SERVICE WATER LOOP DEMAND MIXER,NODE 39,SERVICE WATER LOOP DEMAND OUTLET PIPE NODE,SERVICE WATER LOOP,Demand
     Plant Loop Connector Branches,2,Mixer,SERVICE WATER LOOP DEMAND MIXER,SERVICE WATER LOOP DEMAND BYPASS BRANCH,SERVICE WATER LOOP DEMAND OUTLET BRANCH,SERVICE WATER LOOP,Demand
     Plant Loop Connector Nodes,   2,Mixer,SERVICE WATER LOOP DEMAND MIXER,SERVICE WATER LOOP DEMAND BYPASS PIPE OUTLET NODE,SERVICE WATER LOOP DEMAND OUTLET PIPE NODE,SERVICE WATER LOOP,Demand
 Plant Loop,SERVICE WATER LOOP,Supply,NODE 31,NODE 32,SERVICE WATER LOOP SUPPLY BRANCHES,SERVICE WATER LOOP SUPPLY CONNECTOR LIST
   Plant Loop Connector,Splitter,SERVICE WATER LOOP SUPPLY SPLITTER,SERVICE WATER LOOP,Supply,1
     Plant Loop Connector Branches,1,Splitter,SERVICE WATER LOOP SUPPLY SPLITTER,SERVICE WATER LOOP SUPPLY INLET BRANCH,SERVICE WATER LOOP SUPPLY BRANCH 1,SERVICE WATER LOOP,Supply
     Plant Loop Connector Nodes,   1,Splitter,SERVICE WATER LOOP SUPPLY SPLITTER,NODE 37,NODE 33,SERVICE WATER LOOP,Supply
   Plant Loop Connector,Mixer,SERVICE WATER LOOP SUPPLY MIXER,SERVICE WATER LOOP,Supply,1
     Plant Loop Connector Branches,1,Mixer,SERVICE WATER LOOP SUPPLY MIXER,SERVICE WATER LOOP SUPPLY BRANCH 1,SERVICE WATER LOOP SUPPLY OUTLET BRANCH,SERVICE WATER LOOP,Supply
     Plant Loop Connector Nodes,   1,Mixer,SERVICE WATER LOOP SUPPLY MIXER,NODE 38,SERVICE WATER LOOP SUPPLY OUTLET PIPE NODE,SERVICE WATER LOOP,Supply
 Plant Loop Supply Connection,SERVICE WATER LOOP,NODE 32,NODE 34
 Plant Loop Return Connection,SERVICE WATER LOOP,NODE 35,NODE 31
! ===============================================================
! <# Condenser Loops>,<Number of Condenser Loops>
 #Condenser Loops,0
! <Condenser Loop>,<Condenser Loop Name>,<Loop Type>,<Inlet Node Name>,<Outlet Node Name>,<Branch List>,<Connector List>
! <Condenser Loop Connector>,<Connector Type>,<Connector Name>,<Loop Name>,<Loop Type>,<Number of Inlets/Outlets>
! <Condenser Loop Connector Branches>,<Connector Node Count>,<Connector Type>,<Connector Name>,<Inlet Branch>,<Outlet Branch>,<Loop Name>,<Loop Type>
! <Condenser Loop Connector Nodes>,<Connector Node Count>,<Connector Type>,<Connector Name>,<Inlet Node>,<Outlet Node>,<Loop Name>,<Loop Type>
! <Condenser Loop Supply Connection>,<Condenser Loop Name>,<Supply Side Outlet Node Name>,<Demand Side Inlet Node Name>
! <Condenser Loop Return Connection>,<Condenser Loop Name>,<Demand Side Outlet Node Name>,<Supply Side Inlet Node Name>
! ===============================================================
! <# Controlled Zones>,<Number of Controlled Zones>
 #Controlled Zones,28
! <Controlled Zone>,<Controlled Zone Name>,<Equip List Name>,<Control List Name>,<Zone Node Name>,<# Inlet Nodes>,<# Exhaust Nodes>,<# Return Nodes>
! <Controlled Zone Inlet>,<Inlet Node Count>,<Controlled Zone Name>,<Supply Air Inlet Node Name>,<SD Sys:Cooling/Heating [DD:Cooling] Inlet Node Name>,<DD Sys:Heating Inlet Node Name>
! <Controlled Zone Exhaust>,<Exhaust Node Count>,<Controlled Zone Name>,<Exhaust Air Node Name>
 Controlled Zone,THERMAL ZONE 1,THERMAL ZONE 1 EQUIPMENT LIST,,NODE 1,1,1,0
   Controlled Zone Inlet,1,THERMAL ZONE 1,NODE 30,Undefined,N/A
   Controlled Zone Exhaust,1,THERMAL ZONE 1,NODE 29
 Controlled Zone,THERMAL ZONE 10,THERMAL ZONE 10 EQUIPMENT LIST,,NODE 10,1,1,0
   Controlled Zone Inlet,1,THERMAL ZONE 10,NODE 47,Undefined,N/A
   Controlled Zone Exhaust,1,THERMAL ZONE 10,NODE 46
 Controlled Zone,THERMAL ZONE 11,THERMAL ZONE 11 EQUIPMENT LIST,,NODE 11,1,1,0
   Controlled Zone Inlet,1,THERMAL ZONE 11,NODE 81,Undefined,N/A
   Controlled Zone Exhaust,1,THERMAL ZONE 11,NODE 80
 Controlled Zone,THERMAL ZONE 12,THERMAL ZONE 12 EQUIPMENT LIST,,NODE 12,1,1,0
   Controlled Zone Inlet,1,THERMAL ZONE 12,NODE 55,Undefined,N/A
   Controlled Zone Exhaust,1,THERMAL ZONE 12,NODE 54
 Controlled Zone,THERMAL ZONE 13,THERMAL ZONE 13 EQUIPMENT LIST,,NODE 13,1,1,0
   Controlled Zone Inlet,1,THERMAL ZONE 13,NODE 85,Undefined,N/A
   Controlled Zone Exhaust,1,THERMAL ZONE 13,NODE 84
 Controlled Zone,THERMAL ZONE 14,THERMAL ZONE 14 EQUIPMENT LIST,,NODE 14,1,1,0
   Controlled Zone Inlet,1,THERMAL ZONE 14,NODE 71,Undefined,N/A
   Controlled Zone Exhaust,1,THERMAL ZONE 14,NODE 70
 Controlled Zone,THERMAL ZONE 15,THERMAL ZONE 15 EQUIPMENT LIST,,NODE 15,1,1,0
   Controlled Zone Inlet,1,THERMAL ZONE 15,NODE 49,Undefined,N/A
   Controlled Zone Exhaust,1,THERMAL ZONE 15,NODE 48
 Controlled Zone,THERMAL ZONE 16,THERMAL ZONE 16 EQUIPMENT LIST,,NODE 16,1,1,0
   Controlled Zone Inlet,1,THERMAL ZONE 16,NODE 59,Undefined,N/A
   Controlled Zone Exhaust,1,THERMAL ZONE 16,NODE 58
 Controlled Zone,THERMAL ZONE 17,THERMAL ZONE 17 EQUIPMENT LIST,,NODE 17,1,1,0
   Controlled Zone Inlet,1,THERMAL ZONE 17,NODE 79,Undefined,N/A
   Controlled Zone Exhaust,1,THERMAL ZONE 17,NODE 78
 Controlled Zone,THERMAL ZONE 18,THERMAL ZONE 18 EQUIPMENT LIST,,NODE 18,1,1,0
   Controlled Zone Inlet,1,THERMAL ZONE 18,NODE 69,Undefined,N/A
   Controlled Zone Exhaust,1,THERMAL ZONE 18,NODE 68
 Controlled Zone,THERMAL ZONE 19,THERMAL ZONE 19 EQUIPMENT LIST,,NODE 19,1,1,0
   Controlled Zone Inlet,1,THERMAL ZONE 19,NODE 57,Undefined,N/A
   Controlled Zone Exhaust,1,THERMAL ZONE 19,NODE 56
 Controlled Zone,THERMAL ZONE 2,THERMAL ZONE 2 EQUIPMENT LIST,,NODE 2,1,1,0
   Controlled Zone Inlet,1,THERMAL ZONE 2,NODE 91,Undefined,N/A
   Controlled Zone Exhaust,1,THERMAL ZONE 2,NODE 90
 Controlled Zone,THERMAL ZONE 20,THERMAL ZONE 20 EQUIPMENT LIST,,NODE 20,1,1,0
   Controlled Zone Inlet,1,THERMAL ZONE 20,NODE 87,Undefined,N/A
   Controlled Zone Exhaust,1,THERMAL ZONE 20,NODE 86
 Controlled Zone,THERMAL ZONE 21,THERMAL ZONE 21 EQUIPMENT LIST,,NODE 21,1,1,0
   Controlled Zone Inlet,1,THERMAL ZONE 21,NODE 73,Undefined,N/A
   Controlled Zone Exhaust,1,THERMAL ZONE 21,NODE 72
 Controlled Zone,THERMAL ZONE 22,THERMAL ZONE 22 EQUIPMENT LIST,,NODE 22,1,1,0
   Controlled Zone Inlet,1,THERMAL ZONE 22,NODE 75,Undefined,N/A
   Controlled Zone Exhaust,1,THERMAL ZONE 22,NODE 74
 Controlled Zone,THERMAL ZONE 23,THERMAL ZONE 23 EQUIPMENT LIST,,NODE 23,1,1,0
   Controlled Zone Inlet,1,THERMAL ZONE 23,NODE 77,Undefined,N/A
   Controlled Zone Exhaust,1,THERMAL ZONE 23,NODE 76
 Controlled Zone,THERMAL ZONE 24,THERMAL ZONE 24 EQUIPMENT LIST,,NODE 24,1,1,0
   Controlled Zone Inlet,1,THERMAL ZONE 24,NODE 83,Undefined,N/A
   Controlled Zone Exhaust,1,THERMAL ZONE 24,NODE 82
 Controlled Zone,THERMAL ZONE 25,THERMAL ZONE 25 EQUIPMENT LIST,,NODE 25,1,1,0
   Controlled Zone Inlet,1,THERMAL ZONE 25,NODE 89,Undefined,N/A
   Controlled Zone Exhaust,1,THERMAL ZONE 25,NODE 88
 Controlled Zone,THERMAL ZONE 26,THERMAL ZONE 26 EQUIPMENT LIST,,NODE 26,1,1,0
   Controlled Zone Inlet,1,THERMAL ZONE 26,NODE 41,Undefined,N/A
   Controlled Zone Exhaust,1,THERMAL ZONE 26,NODE 40
 Controlled Zone,THERMAL ZONE 27,THERMAL ZONE 27 EQUIPMENT LIST,,NODE 27,1,1,0
   Controlled Zone Inlet,1,THERMAL ZONE 27,NODE 45,Undefined,N/A
   Controlled Zone Exhaust,1,THERMAL ZONE 27,NODE 44
 Controlled Zone,THERMAL ZONE 28,THERMAL ZONE 28 EQUIPMENT LIST,,NODE 28,1,1,0
   Controlled Zone Inlet,1,THERMAL ZONE 28,NODE 43,Undefined,N/A
   Controlled Zone Exhaust,1,THERMAL ZONE 28,NODE 42
 Controlled Zone,THERMAL ZONE 3,THERMAL ZONE 3 EQUIPMENT LIST,,NODE 3,1,1,0
   Controlled Zone Inlet,1,THERMAL ZONE 3,NODE 93,Undefined,N/A
   Controlled Zone Exhaust,1,THERMAL ZONE 3,NODE 92
 Controlled Zone,THERMAL ZONE 4,THERMAL ZONE 4 EQUIPMENT LIST,,NODE 4,1,1,0
   Controlled Zone Inlet,1,THERMAL ZONE 4,NODE 67,Undefined,N/A
   Controlled Zone Exhaust,1,THERMAL ZONE 4,NODE 66
 Controlled Zone,THERMAL ZONE 5,THERMAL ZONE 5 EQUIPMENT LIST,,NODE 5,1,1,0
   Controlled Zone Inlet,1,THERMAL ZONE 5,NODE 61,Undefined,N/A
   Controlled Zone Exhaust,1,THERMAL ZONE 5,NODE 60
 Controlled Zone,THERMAL ZONE 6,THERMAL ZONE 6 EQUIPMENT LIST,,NODE 6,1,1,0
   Controlled Zone Inlet,1,THERMAL ZONE 6,NODE 51,Undefined,N/A
   Controlled Zone Exhaust,1,THERMAL ZONE 6,NODE 50
 Controlled Zone,THERMAL ZONE 7,THERMAL ZONE 7 EQUIPMENT LIST,,NODE 7,1,1,0
   Controlled Zone Inlet,1,THERMAL ZONE 7,NODE 63,Undefined,N/A
   Controlled Zone Exhaust,1,THERMAL ZONE 7,NODE 62
 Controlled Zone,THERMAL ZONE 8,THERMAL ZONE 8 EQUIPMENT LIST,,NODE 8,1,1,0
   Controlled Zone Inlet,1,THERMAL ZONE 8,NODE 53,Undefined,N/A
   Controlled Zone Exhaust,1,THERMAL ZONE 8,NODE 52
 Controlled Zone,THERMAL ZONE 9,THERMAL ZONE 9 EQUIPMENT LIST,,NODE 9,1,1,0
   Controlled Zone Inlet,1,THERMAL ZONE 9,NODE 65,Undefined,N/A
   Controlled Zone Exhaust,1,THERMAL ZONE 9,NODE 64
! ===============================================================
! <#Zone Equipment Lists>,<Number of Zone Equipment Lists>
 #Zone Equipment Lists,28
! <Zone Equipment List>,<Zone Equipment List Count>,<Zone Equipment List Name>,<Zone Name>,<Number of Components>
! <Zone Equipment Component>,<Component Count>,<Component Type>,<Component Name>,<Zone Name>,<Heating Priority>,<Cooling Priority>
 Zone Equipment List,1,THERMAL ZONE 1 EQUIPMENT LIST,THERMAL ZONE 1,2
   Zone Equipment Component,1,ZONEHVAC:BASEBOARD:CONVECTIVE:ELECTRIC,ELEC BASEBOARD,THERMAL ZONE 1,1,1
   Zone Equipment Component,2,ZONEHVAC:PACKAGEDTERMINALHEATPUMP,PTHP,THERMAL ZONE 1,2,2
 Zone Equipment List,2,THERMAL ZONE 10 EQUIPMENT LIST,THERMAL ZONE 10,2
   Zone Equipment Component,1,ZONEHVAC:BASEBOARD:CONVECTIVE:ELECTRIC,ELEC BASEBOARD 4,THERMAL ZONE 10,1,1
   Zone Equipment Component,2,ZONEHVAC:PACKAGEDTERMINALHEATPUMP,PTHP 4,THERMAL ZONE 10,2,2
 Zone Equipment List,3,THERMAL ZONE 11 EQUIPMENT LIST,THERMAL ZONE 11,2
   Zone Equipment Component,1,ZONEHVAC:BASEBOARD:CONVECTIVE:ELECTRIC,ELEC BASEBOARD 21,THERMAL ZONE 11,1,1
   Zone Equipment Component,2,ZONEHVAC:PACKAGEDTERMINALHEATPUMP,PTHP 21,THERMAL ZONE 11,2,2
 Zone Equipment List,4,THERMAL ZONE 12 EQUIPMENT LIST,THERMAL ZONE 12,2
   Zone Equipment Component,1,ZONEHVAC:BASEBOARD:CONVECTIVE:ELECTRIC,ELEC BASEBOARD 8,THERMAL ZONE 12,1,1
   Zone Equipment Component,2,ZONEHVAC:PACKAGEDTERMINALHEATPUMP,PTHP 8,THERMAL ZONE 12,2,2
 Zone Equipment List,5,THERMAL ZONE 13 EQUIPMENT LIST,THERMAL ZONE 13,2
   Zone Equipment Component,1,ZONEHVAC:BASEBOARD:CONVECTIVE:ELECTRIC,ELEC BASEBOARD 23,THERMAL ZONE 13,1,1
   Zone Equipment Component,2,ZONEHVAC:PACKAGEDTERMINALHEATPUMP,PTHP 23,THERMAL ZONE 13,2,2
 Zone Equipment List,6,THERMAL ZONE 14 EQUIPMENT LIST,THERMAL ZONE 14,2
   Zone Equipment Component,1,ZONEHVAC:BASEBOARD:CONVECTIVE:ELECTRIC,ELEC BASEBOARD 16,THERMAL ZONE 14,1,1
   Zone Equipment Component,2,ZONEHVAC:PACKAGEDTERMINALHEATPUMP,PTHP 16,THERMAL ZONE 14,2,2
 Zone Equipment List,7,THERMAL ZONE 15 EQUIPMENT LIST,THERMAL ZONE 15,2
   Zone Equipment Component,1,ZONEHVAC:BASEBOARD:CONVECTIVE:ELECTRIC,ELEC BASEBOARD 5,THERMAL ZONE 15,1,1
   Zone Equipment Component,2,ZONEHVAC:PACKAGEDTERMINALHEATPUMP,PTHP 5,THERMAL ZONE 15,2,2
 Zone Equipment List,8,THERMAL ZONE 16 EQUIPMENT LIST,THERMAL ZONE 16,2
   Zone Equipment Component,1,ZONEHVAC:BASEBOARD:CONVECTIVE:ELECTRIC,ELEC BASEBOARD 10,THERMAL ZONE 16,1,1
   Zone Equipment Component,2,ZONEHVAC:PACKAGEDTERMINALHEATPUMP,PTHP 10,THERMAL ZONE 16,2,2
 Zone Equipment List,9,THERMAL ZONE 17 EQUIPMENT LIST,THERMAL ZONE 17,2
   Zone Equipment Component,1,ZONEHVAC:BASEBOARD:CONVECTIVE:ELECTRIC,ELEC BASEBOARD 20,THERMAL ZONE 17,1,1
   Zone Equipment Component,2,ZONEHVAC:PACKAGEDTERMINALHEATPUMP,PTHP 20,THERMAL ZONE 17,2,2
 Zone Equipment List,10,THERMAL ZONE 18 EQUIPMENT LIST,THERMAL ZONE 18,2
   Zone Equipment Component,1,ZONEHVAC:BASEBOARD:CONVECTIVE:ELECTRIC,ELEC BASEBOARD 15,THERMAL ZONE 18,1,1
   Zone Equipment Component,2,ZONEHVAC:PACKAGEDTERMINALHEATPUMP,PTHP 15,THERMAL ZONE 18,2,2
 Zone Equipment List,11,THERMAL ZONE 19 EQUIPMENT LIST,THERMAL ZONE 19,2
   Zone Equipment Component,1,ZONEHVAC:BASEBOARD:CONVECTIVE:ELECTRIC,ELEC BASEBOARD 9,THERMAL ZONE 19,1,1
   Zone Equipment Component,2,ZONEHVAC:PACKAGEDTERMINALHEATPUMP,PTHP 9,THERMAL ZONE 19,2,2
 Zone Equipment List,12,THERMAL ZONE 2 EQUIPMENT LIST,THERMAL ZONE 2,2
   Zone Equipment Component,1,ZONEHVAC:BASEBOARD:CONVECTIVE:ELECTRIC,ELEC BASEBOARD 26,THERMAL ZONE 2,1,1
   Zone Equipment Component,2,ZONEHVAC:PACKAGEDTERMINALHEATPUMP,PTHP 26,THERMAL ZONE 2,2,2
 Zone Equipment List,13,THERMAL ZONE 20 EQUIPMENT LIST,THERMAL ZONE 20,2
   Zone Equipment Component,1,ZONEHVAC:BASEBOARD:CONVECTIVE:ELECTRIC,ELEC BASEBOARD 24,THERMAL ZONE 20,1,1
   Zone Equipment Component,2,ZONEHVAC:PACKAGEDTERMINALHEATPUMP,PTHP 24,THERMAL ZONE 20,2,2
 Zone Equipment List,14,THERMAL ZONE 21 EQUIPMENT LIST,THERMAL ZONE 21,2
   Zone Equipment Component,1,ZONEHVAC:BASEBOARD:CONVECTIVE:ELECTRIC,ELEC BASEBOARD 17,THERMAL ZONE 21,1,1
   Zone Equipment Component,2,ZONEHVAC:PACKAGEDTERMINALHEATPUMP,PTHP 17,THERMAL ZONE 21,2,2
 Zone Equipment List,15,THERMAL ZONE 22 EQUIPMENT LIST,THERMAL ZONE 22,2
   Zone Equipment Component,1,ZONEHVAC:BASEBOARD:CONVECTIVE:ELECTRIC,ELEC BASEBOARD 18,THERMAL ZONE 22,1,1
   Zone Equipment Component,2,ZONEHVAC:PACKAGEDTERMINALHEATPUMP,PTHP 18,THERMAL ZONE 22,2,2
 Zone Equipment List,16,THERMAL ZONE 23 EQUIPMENT LIST,THERMAL ZONE 23,2
   Zone Equipment Component,1,ZONEHVAC:BASEBOARD:CONVECTIVE:ELECTRIC,ELEC BASEBOARD 19,THERMAL ZONE 23,1,1
   Zone Equipment Component,2,ZONEHVAC:PACKAGEDTERMINALHEATPUMP,PTHP 19,THERMAL ZONE 23,2,2
 Zone Equipment List,17,THERMAL ZONE 24 EQUIPMENT LIST,THERMAL ZONE 24,2
   Zone Equipment Component,1,ZONEHVAC:BASEBOARD:CONVECTIVE:ELECTRIC,ELEC BASEBOARD 22,THERMAL ZONE 24,1,1
   Zone Equipment Component,2,ZONEHVAC:PACKAGEDTERMINALHEATPUMP,PTHP 22,THERMAL ZONE 24,2,2
 Zone Equipment List,18,THERMAL ZONE 25 EQUIPMENT LIST,THERMAL ZONE 25,2
   Zone Equipment Component,1,ZONEHVAC:BASEBOARD:CONVECTIVE:ELECTRIC,ELEC BASEBOARD 25,THERMAL ZONE 25,1,1
   Zone Equipment Component,2,ZONEHVAC:PACKAGEDTERMINALHEATPUMP,PTHP 25,THERMAL ZONE 25,2,2
 Zone Equipment List,19,THERMAL ZONE 26 EQUIPMENT LIST,THERMAL ZONE 26,2
   Zone Equipment Component,1,ZONEHVAC:BASEBOARD:CONVECTIVE:ELECTRIC,ELEC BASEBOARD 1,THERMAL ZONE 26,1,1
   Zone Equipment Component,2,ZONEHVAC:PACKAGEDTERMINALHEATPUMP,PTHP 1,THERMAL ZONE 26,2,2
 Zone Equipment List,20,THERMAL ZONE 27 EQUIPMENT LIST,THERMAL ZONE 27,2
   Zone Equipment Component,1,ZONEHVAC:BASEBOARD:CONVECTIVE:ELECTRIC,ELEC BASEBOARD 3,THERMAL ZONE 27,1,1
   Zone Equipment Component,2,ZONEHVAC:PACKAGEDTERMINALHEATPUMP,PTHP 3,THERMAL ZONE 27,2,2
 Zone Equipment List,21,THERMAL ZONE 28 EQUIPMENT LIST,THERMAL ZONE 28,2
   Zone Equipment Component,1,ZONEHVAC:BASEBOARD:CONVECTIVE:ELECTRIC,ELEC BASEBOARD 2,THERMAL ZONE 28,1,1
   Zone Equipment Component,2,ZONEHVAC:PACKAGEDTERMINALHEATPUMP,PTHP 2,THERMAL ZONE 28,2,2
 Zone Equipment List,22,THERMAL ZONE 3 EQUIPMENT LIST,THERMAL ZONE 3,2
   Zone Equipment Component,1,ZONEHVAC:BASEBOARD:CONVECTIVE:ELECTRIC,ELEC BASEBOARD 27,THERMAL ZONE 3,1,1
   Zone Equipment Component,2,ZONEHVAC:PACKAGEDTERMINALHEATPUMP,PTHP 27,THERMAL ZONE 3,2,2
 Zone Equipment List,23,THERMAL ZONE 4 EQUIPMENT LIST,THERMAL ZONE 4,2
   Zone Equipment Component,1,ZONEHVAC:BASEBOARD:CONVECTIVE:ELECTRIC,ELEC BASEBOARD 14,THERMAL ZONE 4,1,1
   Zone Equipment Component,2,ZONEHVAC:PACKAGEDTERMINALHEATPUMP,PTHP 14,THERMAL ZONE 4,2,2
 Zone Equipment List,24,THERMAL ZONE 5 EQUIPMENT LIST,THERMAL ZONE 5,2
   Zone Equipment Component,1,ZONEHVAC:BASEBOARD:CONVECTIVE:ELECTRIC,ELEC BASEBOARD 11,THERMAL ZONE 5,1,1
   Zone Equipment Component,2,ZONEHVAC:PACKAGEDTERMINALHEATPUMP,PTHP 11,THERMAL ZONE 5,2,2
 Zone Equipment List,25,THERMAL ZONE 6 EQUIPMENT LIST,THERMAL ZONE 6,2
   Zone Equipment Component,1,ZONEHVAC:BASEBOARD:CONVECTIVE:ELECTRIC,ELEC BASEBOARD 6,THERMAL ZONE 6,1,1
   Zone Equipment Component,2,ZONEHVAC:PACKAGEDTERMINALHEATPUMP,PTHP 6,THERMAL ZONE 6,2,2
 Zone Equipment List,26,THERMAL ZONE 7 EQUIPMENT LIST,THERMAL ZONE 7,2
   Zone Equipment Component,1,ZONEHVAC:BASEBOARD:CONVECTIVE:ELECTRIC,ELEC BASEBOARD 12,THERMAL ZONE 7,1,1
   Zone Equipment Component,2,ZONEHVAC:PACKAGEDTERMINALHEATPUMP,PTHP 12,THERMAL ZONE 7,2,2
 Zone Equipment List,27,THERMAL ZONE 8 EQUIPMENT LIST,THERMAL ZONE 8,2
   Zone Equipment Component,1,ZONEHVAC:BASEBOARD:CONVECTIVE:ELECTRIC,ELEC BASEBOARD 7,THERMAL ZONE 8,1,1
   Zone Equipment Component,2,ZONEHVAC:PACKAGEDTERMINALHEATPUMP,PTHP 7,THERMAL ZONE 8,2,2
 Zone Equipment List,28,THERMAL ZONE 9 EQUIPMENT LIST,THERMAL ZONE 9,2
   Zone Equipment Component,1,ZONEHVAC:BASEBOARD:CONVECTIVE:ELECTRIC,ELEC BASEBOARD 13,THERMAL ZONE 9,1,1
   Zone Equipment Component,2,ZONEHVAC:PACKAGEDTERMINALHEATPUMP,PTHP 13,THERMAL ZONE 9,2,2
! ===============================================================
! <#AirLoopHVACs>,<Number of AirLoopHVACs>
 #AirLoopHVACs,0
! <AirLoopHVAC>,<Air Loop Name>,<# Return Nodes>,<# Supply Nodes>,<# Zones Cooled>,<# Zones Heated>,<Outdoor Air Used>
! <AirLoop Return Connections>,<Connection Count>,<AirLoopHVAC Name>,<Zn Eqp Return Node #>,<Zn Eqp Return Node Name>,<AirLoop Return Node #>,<Air Loop Return Node Name>
! <AirLoop Supply Connections>,<Connection Count>,<AirLoopHVAC Name>,<Zn Eqp Supply Node #>,<Zn Eqp Supply Node Name>,<AirLoop Supply Node #>,<Air Loop Supply Node Name>
! <Cooled Zone Info>,<Cooled Zone Count>,<Cooled Zone Name>,<Cooled Zone Inlet Node #>,<Cooled Zone Inlet Node Name>,<AirLoopHVAC Name>
! <Heated Zone Info>,<Heated Zone Count>,<Heated Zone Name>,<Heated Zone Inlet Node #>,<Heated Zone Inlet Node Name>,<AirLoopHVAC Name>
! <Outdoor Air Connections>,<OA Inlet Node #>,<OA Return Air Inlet Node Name>,<OA Outlet Node #>,<OA Mixed Air Outlet Node Name>,<AirLoopHVAC Name>
! <AirLoopHVAC Connector>,<Connector Type>,<Connector Name>,<Loop Name>,<Loop Type>,<Number of Inlets/Outlets>
! <AirLoopHVAC Connector Branches>,<Connector Node Count>,<Connector Type>,<Connector Name>,<Inlet Branch>,<Outlet Branch>,<Loop Name>,<Loop Type>
! <AirLoopHVAC Connector Nodes>,<Connector Node Count>,<Connector Type>,<Connector Name>,<Inlet Node>,<Outlet Node>,<Loop Name>,<Loop Type>
! ===============================================================
! <#Parent Node Connections>,<Number of Parent Node Connections>
 #Parent Node Connections,75
! <Parent Node Connection>,<Node Name>,<Node ObjectType>,<Node ObjectName>,<Node ConnectionType>,<Node FluidStream>
 Parent Node Connection,NODE 31,BRANCH,SERVICE WATER LOOP SUPPLY INLET BRANCH,Inlet,1
 Parent Node Connection,NODE 37,BRANCH,SERVICE WATER LOOP SUPPLY INLET BRANCH,Outlet,1
 Parent Node Connection,NODE 33,BRANCH,SERVICE WATER LOOP SUPPLY BRANCH 1,Inlet,1
 Parent Node Connection,NODE 38,BRANCH,SERVICE WATER LOOP SUPPLY BRANCH 1,Outlet,1
 Parent Node Connection,SERVICE WATER LOOP SUPPLY OUTLET PIPE NODE,BRANCH,SERVICE WATER LOOP SUPPLY OUTLET BRANCH,Inlet,1
 Parent Node Connection,NODE 32,BRANCH,SERVICE WATER LOOP SUPPLY OUTLET BRANCH,Outlet,1
 Parent Node Connection,NODE 34,BRANCH,SERVICE WATER LOOP DEMAND INLET BRANCH,Inlet,1
 Parent Node Connection,SERVICE WATER LOOP DEMAND INLET PIPE NODE,BRANCH,SERVICE WATER LOOP DEMAND INLET BRANCH,Outlet,1
 Parent Node Connection,NODE 36,BRANCH,SERVICE WATER LOOP DEMAND BRANCH 1,Inlet,1
 Parent Node Connection,NODE 39,BRANCH,SERVICE WATER LOOP DEMAND BRANCH 1,Outlet,1
 Parent Node Connection,SERVICE WATER LOOP DEMAND BYPASS PIPE INLET NODE,BRANCH,SERVICE WATER LOOP DEMAND BYPASS BRANCH,Inlet,1
 Parent Node Connection,SERVICE WATER LOOP DEMAND BYPASS PIPE OUTLET NODE,BRANCH,SERVICE WATER LOOP DEMAND BYPASS BRANCH,Outlet,1
 Parent Node Connection,SERVICE WATER LOOP DEMAND OUTLET PIPE NODE,BRANCH,SERVICE WATER LOOP DEMAND OUTLET BRANCH,Inlet,1
 Parent Node Connection,NODE 35,BRANCH,SERVICE WATER LOOP DEMAND OUTLET BRANCH,Outlet,1
 Parent Node Connection,NODE 31,PLANTLOOP,SERVICE WATER LOOP,Inlet,1
 Parent Node Connection,NODE 32,PLANTLOOP,SERVICE WATER LOOP,Outlet,1
 Parent Node Connection,NODE 34,PLANTLOOP,SERVICE WATER LOOP,Inlet,1
 Parent Node Connection,NODE 35,PLANTLOOP,SERVICE WATER LOOP,Outlet,1
 Parent Node Connection,NODE 32,PLANTLOOP,SERVICE WATER LOOP,Sensor,1
 Parent Node Connection,NODE 29,ZONEHVAC:PACKAGEDTERMINALHEATPUMP,PTHP,Inlet,1
 Parent Node Connection,NODE 30,ZONEHVAC:PACKAGEDTERMINALHEATPUMP,PTHP,Outlet,1
 Parent Node Connection,NODE 40,ZONEHVAC:PACKAGEDTERMINALHEATPUMP,PTHP 1,Inlet,1
 Parent Node Connection,NODE 41,ZONEHVAC:PACKAGEDTERMINALHEATPUMP,PTHP 1,Outlet,1
 Parent Node Connection,NODE 42,ZONEHVAC:PACKAGEDTERMINALHEATPUMP,PTHP 2,Inlet,1
 Parent Node Connection,NODE 43,ZONEHVAC:PACKAGEDTERMINALHEATPUMP,PTHP 2,Outlet,1
 Parent Node Connection,NODE 44,ZONEHVAC:PACKAGEDTERMINALHEATPUMP,PTHP 3,Inlet,1
 Parent Node Connection,NODE 45,ZONEHVAC:PACKAGEDTERMINALHEATPUMP,PTHP 3,Outlet,1
 Parent Node Connection,NODE 46,ZONEHVAC:PACKAGEDTERMINALHEATPUMP,PTHP 4,Inlet,1
 Parent Node Connection,NODE 47,ZONEHVAC:PACKAGEDTERMINALHEATPUMP,PTHP 4,Outlet,1
 Parent Node Connection,NODE 48,ZONEHVAC:PACKAGEDTERMINALHEATPUMP,PTHP 5,Inlet,1
 Parent Node Connection,NODE 49,ZONEHVAC:PACKAGEDTERMINALHEATPUMP,PTHP 5,Outlet,1
 Parent Node Connection,NODE 50,ZONEHVAC:PACKAGEDTERMINALHEATPUMP,PTHP 6,Inlet,1
 Parent Node Connection,NODE 51,ZONEHVAC:PACKAGEDTERMINALHEATPUMP,PTHP 6,Outlet,1
 Parent Node Connection,NODE 52,ZONEHVAC:PACKAGEDTERMINALHEATPUMP,PTHP 7,Inlet,1
 Parent Node Connection,NODE 53,ZONEHVAC:PACKAGEDTERMINALHEATPUMP,PTHP 7,Outlet,1
 Parent Node Connection,NODE 54,ZONEHVAC:PACKAGEDTERMINALHEATPUMP,PTHP 8,Inlet,1
 Parent Node Connection,NODE 55,ZONEHVAC:PACKAGEDTERMINALHEATPUMP,PTHP 8,Outlet,1
 Parent Node Connection,NODE 56,ZONEHVAC:PACKAGEDTERMINALHEATPUMP,PTHP 9,Inlet,1
 Parent Node Connection,NODE 57,ZONEHVAC:PACKAGEDTERMINALHEATPUMP,PTHP 9,Outlet,1
 Parent Node Connection,NODE 58,ZONEHVAC:PACKAGEDTERMINALHEATPUMP,PTHP 10,Inlet,1
 Parent Node Connection,NODE 59,ZONEHVAC:PACKAGEDTERMINALHEATPUMP,PTHP 10,Outlet,1
 Parent Node Connection,NODE 60,ZONEHVAC:PACKAGEDTERMINALHEATPUMP,PTHP 11,Inlet,1
 Parent Node Connection,NODE 61,ZONEHVAC:PACKAGEDTERMINALHEATPUMP,PTHP 11,Outlet,1
 Parent Node Connection,NODE 62,ZONEHVAC:PACKAGEDTERMINALHEATPUMP,PTHP 12,Inlet,1
 Parent Node Connection,NODE 63,ZONEHVAC:PACKAGEDTERMINALHEATPUMP,PTHP 12,Outlet,1
 Parent Node Connection,NODE 64,ZONEHVAC:PACKAGEDTERMINALHEATPUMP,PTHP 13,Inlet,1
 Parent Node Connection,NODE 65,ZONEHVAC:PACKAGEDTERMINALHEATPUMP,PTHP 13,Outlet,1
 Parent Node Connection,NODE 66,ZONEHVAC:PACKAGEDTERMINALHEATPUMP,PTHP 14,Inlet,1
 Parent Node Connection,NODE 67,ZONEHVAC:PACKAGEDTERMINALHEATPUMP,PTHP 14,Outlet,1
 Parent Node Connection,NODE 68,ZONEHVAC:PACKAGEDTERMINALHEATPUMP,PTHP 15,Inlet,1
 Parent Node Connection,NODE 69,ZONEHVAC:PACKAGEDTERMINALHEATPUMP,PTHP 15,Outlet,1
 Parent Node Connection,NODE 70,ZONEHVAC:PACKAGEDTERMINALHEATPUMP,PTHP 16,Inlet,1
 Parent Node Connection,NODE 71,ZONEHVAC:PACKAGEDTERMINALHEATPUMP,PTHP 16,Outlet,1
 Parent Node Connection,NODE 72,ZONEHVAC:PACKAGEDTERMINALHEATPUMP,PTHP 17,Inlet,1
 Parent Node Connection,NODE 73,ZONEHVAC:PACKAGEDTERMINALHEATPUMP,PTHP 17,Outlet,1
 Parent Node Connection,NODE 74,ZONEHVAC:PACKAGEDTERMINALHEATPUMP,PTHP 18,Inlet,1
 Parent Node Connection,NODE 75,ZONEHVAC:PACKAGEDTERMINALHEATPUMP,PTHP 18,Outlet,1
 Parent Node Connection,NODE 76,ZONEHVAC:PACKAGEDTERMINALHEATPUMP,PTHP 19,Inlet,1
 Parent Node Connection,NODE 77,ZONEHVAC:PACKAGEDTERMINALHEATPUMP,PTHP 19,Outlet,1
 Parent Node Connection,NODE 78,ZONEHVAC:PACKAGEDTERMINALHEATPUMP,PTHP 20,Inlet,1
 Parent Node Connection,NODE 79,ZONEHVAC:PACKAGEDTERMINALHEATPUMP,PTHP 20,Outlet,1
 Parent Node Connection,NODE 80,ZONEHVAC:PACKAGEDTERMINALHEATPUMP,PTHP 21,Inlet,1
 Parent Node Connection,NODE 81,ZONEHVAC:PACKAGEDTERMINALHEATPUMP,PTHP 21,Outlet,1
 Parent Node Connection,NODE 82,ZONEHVAC:PACKAGEDTERMINALHEATPUMP,PTHP 22,Inlet,1
 Parent Node Connection,NODE 83,ZONEHVAC:PACKAGEDTERMINALHEATPUMP,PTHP 22,Outlet,1
 Parent Node Connection,NODE 84,ZONEHVAC:PACKAGEDTERMINALHEATPUMP,PTHP 23,Inlet,1
 Parent Node Connection,NODE 85,ZONEHVAC:PACKAGEDTERMINALHEATPUMP,PTHP 23,Outlet,1
 Parent Node Connection,NODE 86,ZONEHVAC:PACKAGEDTERMINALHEATPUMP,PTHP 24,Inlet,1
 Parent Node Connection,NODE 87,ZONEHVAC:PACKAGEDTERMINALHEATPUMP,PTHP 24,Outlet,1
 Parent Node Connection,NODE 88,ZONEHVAC:PACKAGEDTERMINALHEATPUMP,PTHP 25,Inlet,1
 Parent Node Connection,NODE 89,ZONEHVAC:PACKAGEDTERMINALHEATPUMP,PTHP 25,Outlet,1
 Parent Node Connection,NODE 90,ZONEHVAC:PACKAGEDTERMINALHEATPUMP,PTHP 26,Inlet,1
 Parent Node Connection,NODE 91,ZONEHVAC:PACKAGEDTERMINALHEATPUMP,PTHP 26,Outlet,1
 Parent Node Connection,NODE 92,ZONEHVAC:PACKAGEDTERMINALHEATPUMP,PTHP 27,Inlet,1
 Parent Node Connection,NODE 93,ZONEHVAC:PACKAGEDTERMINALHEATPUMP,PTHP 27,Outlet,1
! ===============================================================
! <#Non-Parent Node Connections>,<Number of Non-Parent Node Connections>
 #Non-Parent Node Connections,474
! <Non-Parent Node Connection>,<Node Name>,<Node ObjectType>,<Node ObjectName>,<Node ConnectionType>,<Node FluidStream>
 Non-Parent Node Connection,NODE 33,WATERHEATER:MIXED,600 GAL WATER HEATER - 600 KBTU/HR,Inlet,1
 Non-Parent Node Connection,NODE 38,WATERHEATER:MIXED,600 GAL WATER HEATER - 600 KBTU/HR,Outlet,1
 Non-Parent Node Connection,PTHP OA NODE,OUTDOORAIR:NODELIST,OutdoorAir:NodeList,OutdoorAir,1
 Non-Parent Node Connection,PTHP 4 OA NODE,OUTDOORAIR:NODELIST,OutdoorAir:NodeList,OutdoorAir,2
 Non-Parent Node Connection,PTHP 21 OA NODE,OUTDOORAIR:NODELIST,OutdoorAir:NodeList,OutdoorAir,3
 Non-Parent Node Connection,PTHP 8 OA NODE,OUTDOORAIR:NODELIST,OutdoorAir:NodeList,OutdoorAir,4
 Non-Parent Node Connection,PTHP 23 OA NODE,OUTDOORAIR:NODELIST,OutdoorAir:NodeList,OutdoorAir,5
 Non-Parent Node Connection,PTHP 16 OA NODE,OUTDOORAIR:NODELIST,OutdoorAir:NodeList,OutdoorAir,6
 Non-Parent Node Connection,PTHP 5 OA NODE,OUTDOORAIR:NODELIST,OutdoorAir:NodeList,OutdoorAir,7
 Non-Parent Node Connection,PTHP 10 OA NODE,OUTDOORAIR:NODELIST,OutdoorAir:NodeList,OutdoorAir,8
 Non-Parent Node Connection,PTHP 20 OA NODE,OUTDOORAIR:NODELIST,OutdoorAir:NodeList,OutdoorAir,9
 Non-Parent Node Connection,PTHP 15 OA NODE,OUTDOORAIR:NODELIST,OutdoorAir:NodeList,OutdoorAir,10
 Non-Parent Node Connection,PTHP 9 OA NODE,OUTDOORAIR:NODELIST,OutdoorAir:NodeList,OutdoorAir,11
 Non-Parent Node Connection,PTHP 26 OA NODE,OUTDOORAIR:NODELIST,OutdoorAir:NodeList,OutdoorAir,12
 Non-Parent Node Connection,PTHP 24 OA NODE,OUTDOORAIR:NODELIST,OutdoorAir:NodeList,OutdoorAir,13
 Non-Parent Node Connection,PTHP 17 OA NODE,OUTDOORAIR:NODELIST,OutdoorAir:NodeList,OutdoorAir,14
 Non-Parent Node Connection,PTHP 18 OA NODE,OUTDOORAIR:NODELIST,OutdoorAir:NodeList,OutdoorAir,15
 Non-Parent Node Connection,PTHP 19 OA NODE,OUTDOORAIR:NODELIST,OutdoorAir:NodeList,OutdoorAir,16
 Non-Parent Node Connection,PTHP 22 OA NODE,OUTDOORAIR:NODELIST,OutdoorAir:NodeList,OutdoorAir,17
 Non-Parent Node Connection,PTHP 25 OA NODE,OUTDOORAIR:NODELIST,OutdoorAir:NodeList,OutdoorAir,18
 Non-Parent Node Connection,PTHP 1 OA NODE,OUTDOORAIR:NODELIST,OutdoorAir:NodeList,OutdoorAir,19
 Non-Parent Node Connection,PTHP 3 OA NODE,OUTDOORAIR:NODELIST,OutdoorAir:NodeList,OutdoorAir,20
 Non-Parent Node Connection,PTHP 2 OA NODE,OUTDOORAIR:NODELIST,OutdoorAir:NodeList,OutdoorAir,21
 Non-Parent Node Connection,PTHP 27 OA NODE,OUTDOORAIR:NODELIST,OutdoorAir:NodeList,OutdoorAir,22
 Non-Parent Node Connection,PTHP 14 OA NODE,OUTDOORAIR:NODELIST,OutdoorAir:NodeList,OutdoorAir,23
 Non-Parent Node Connection,PTHP 11 OA NODE,OUTDOORAIR:NODELIST,OutdoorAir:NodeList,OutdoorAir,24
 Non-Parent Node Connection,PTHP 6 OA NODE,OUTDOORAIR:NODELIST,OutdoorAir:NodeList,OutdoorAir,25
 Non-Parent Node Connection,PTHP 12 OA NODE,OUTDOORAIR:NODELIST,OutdoorAir:NodeList,OutdoorAir,26
 Non-Parent Node Connection,PTHP 7 OA NODE,OUTDOORAIR:NODELIST,OutdoorAir:NodeList,OutdoorAir,27
 Non-Parent Node Connection,PTHP 13 OA NODE,OUTDOORAIR:NODELIST,OutdoorAir:NodeList,OutdoorAir,28
 Non-Parent Node Connection,MODEL OUTDOOR AIR NODE,OUTDOORAIR:NODE,OutdoorAir:Node,OutdoorAir,29
 Non-Parent Node Connection,NODE 32,SETPOINTMANAGER:SCHEDULED,SETPOINT MANAGER SCHEDULED 1,Setpoint,1
 Non-Parent Node Connection,SERVICE WATER LOOP SUPPLY OUTLET PIPE NODE,PIPE:ADIABATIC,SERVICE WATER LOOP SUPPLY OUTLET PIPE,Inlet,1
 Non-Parent Node Connection,NODE 32,PIPE:ADIABATIC,SERVICE WATER LOOP SUPPLY OUTLET PIPE,Outlet,1
 Non-Parent Node Connection,NODE 34,PIPE:ADIABATIC,SERVICE WATER LOOP DEMAND INLET PIPE,Inlet,1
 Non-Parent Node Connection,SERVICE WATER LOOP DEMAND INLET PIPE NODE,PIPE:ADIABATIC,SERVICE WATER LOOP DEMAND INLET PIPE,Outlet,1
 Non-Parent Node Connection,SERVICE WATER LOOP DEMAND BYPASS PIPE INLET NODE,PIPE:ADIABATIC,SERVICE WATER LOOP DEMAND BYPASS PIPE,Inlet,1
 Non-Parent Node Connection,SERVICE WATER LOOP DEMAND BYPASS PIPE OUTLET NODE,PIPE:ADIABATIC,SERVICE WATER LOOP DEMAND BYPASS PIPE,Outlet,1
 Non-Parent Node Connection,SERVICE WATER LOOP DEMAND OUTLET PIPE NODE,PIPE:ADIABATIC,SERVICE WATER LOOP DEMAND OUTLET PIPE,Inlet,1
 Non-Parent Node Connection,NODE 35,PIPE:ADIABATIC,SERVICE WATER LOOP DEMAND OUTLET PIPE,Outlet,1
 Non-Parent Node Connection,NODE 36,WATERUSE:CONNECTIONS,ESTAR MFHR DHW WATER USE CONNECTION,Inlet,1
 Non-Parent Node Connection,NODE 39,WATERUSE:CONNECTIONS,ESTAR MFHR DHW WATER USE CONNECTION,Outlet,1
 Non-Parent Node Connection,SERVICE WATER LOOP DEMAND INLET PIPE NODE,CONNECTOR:SPLITTER,SERVICE WATER LOOP DEMAND SPLITTER,Inlet,1
 Non-Parent Node Connection,NODE 36,CONNECTOR:SPLITTER,SERVICE WATER LOOP DEMAND SPLITTER,Outlet,1
 Non-Parent Node Connection,SERVICE WATER LOOP DEMAND BYPASS PIPE INLET NODE,CONNECTOR:SPLITTER,SERVICE WATER LOOP DEMAND SPLITTER,Outlet,1
 Non-Parent Node Connection,SERVICE WATER LOOP DEMAND OUTLET PIPE NODE,CONNECTOR:MIXER,SERVICE WATER LOOP DEMAND MIXER,Outlet,1
 Non-Parent Node Connection,NODE 39,CONNECTOR:MIXER,SERVICE WATER LOOP DEMAND MIXER,Inlet,1
 Non-Parent Node Connection,SERVICE WATER LOOP DEMAND BYPASS PIPE OUTLET NODE,CONNECTOR:MIXER,SERVICE WATER LOOP DEMAND MIXER,Inlet,1
 Non-Parent Node Connection,NODE 37,CONNECTOR:SPLITTER,SERVICE WATER LOOP SUPPLY SPLITTER,Inlet,1
 Non-Parent Node Connection,NODE 33,CONNECTOR:SPLITTER,SERVICE WATER LOOP SUPPLY SPLITTER,Outlet,1
 Non-Parent Node Connection,SERVICE WATER LOOP SUPPLY OUTLET PIPE NODE,CONNECTOR:MIXER,SERVICE WATER LOOP SUPPLY MIXER,Outlet,1
 Non-Parent Node Connection,NODE 38,CONNECTOR:MIXER,SERVICE WATER LOOP SUPPLY MIXER,Inlet,1
 Non-Parent Node Connection,NODE 1,ZONEHVAC:EQUIPMENTCONNECTIONS,THERMAL ZONE 1,ZoneNode,1
 Non-Parent Node Connection,PTHP MIXED AIR NODE,COIL:COOLING:DX:SINGLESPEED,PTHP 1 SPD DX CLG COIL,Inlet,1
 Non-Parent Node Connection,PTHP COOLING COIL OUTLET NODE,COIL:COOLING:DX:SINGLESPEED,PTHP 1 SPD DX CLG COIL,Outlet,1
 Non-Parent Node Connection,PTHP 4 MIXED AIR NODE,COIL:COOLING:DX:SINGLESPEED,PTHP 1 SPD DX CLG COIL 4,Inlet,1
 Non-Parent Node Connection,PTHP 4 COOLING COIL OUTLET NODE,COIL:COOLING:DX:SINGLESPEED,PTHP 1 SPD DX CLG COIL 4,Outlet,1
 Non-Parent Node Connection,PTHP 21 MIXED AIR NODE,COIL:COOLING:DX:SINGLESPEED,PTHP 1 SPD DX CLG COIL 21,Inlet,1
 Non-Parent Node Connection,PTHP 21 COOLING COIL OUTLET NODE,COIL:COOLING:DX:SINGLESPEED,PTHP 1 SPD DX CLG COIL 21,Outlet,1
 Non-Parent Node Connection,PTHP 8 MIXED AIR NODE,COIL:COOLING:DX:SINGLESPEED,PTHP 1 SPD DX CLG COIL 8,Inlet,1
 Non-Parent Node Connection,PTHP 8 COOLING COIL OUTLET NODE,COIL:COOLING:DX:SINGLESPEED,PTHP 1 SPD DX CLG COIL 8,Outlet,1
 Non-Parent Node Connection,PTHP 23 MIXED AIR NODE,COIL:COOLING:DX:SINGLESPEED,PTHP 1 SPD DX CLG COIL 23,Inlet,1
 Non-Parent Node Connection,PTHP 23 COOLING COIL OUTLET NODE,COIL:COOLING:DX:SINGLESPEED,PTHP 1 SPD DX CLG COIL 23,Outlet,1
 Non-Parent Node Connection,PTHP 16 MIXED AIR NODE,COIL:COOLING:DX:SINGLESPEED,PTHP 1 SPD DX CLG COIL 16,Inlet,1
 Non-Parent Node Connection,PTHP 16 COOLING COIL OUTLET NODE,COIL:COOLING:DX:SINGLESPEED,PTHP 1 SPD DX CLG COIL 16,Outlet,1
 Non-Parent Node Connection,PTHP 5 MIXED AIR NODE,COIL:COOLING:DX:SINGLESPEED,PTHP 1 SPD DX CLG COIL 5,Inlet,1
 Non-Parent Node Connection,PTHP 5 COOLING COIL OUTLET NODE,COIL:COOLING:DX:SINGLESPEED,PTHP 1 SPD DX CLG COIL 5,Outlet,1
 Non-Parent Node Connection,PTHP 10 MIXED AIR NODE,COIL:COOLING:DX:SINGLESPEED,PTHP 1 SPD DX CLG COIL 10,Inlet,1
 Non-Parent Node Connection,PTHP 10 COOLING COIL OUTLET NODE,COIL:COOLING:DX:SINGLESPEED,PTHP 1 SPD DX CLG COIL 10,Outlet,1
 Non-Parent Node Connection,PTHP 20 MIXED AIR NODE,COIL:COOLING:DX:SINGLESPEED,PTHP 1 SPD DX CLG COIL 20,Inlet,1
 Non-Parent Node Connection,PTHP 20 COOLING COIL OUTLET NODE,COIL:COOLING:DX:SINGLESPEED,PTHP 1 SPD DX CLG COIL 20,Outlet,1
 Non-Parent Node Connection,PTHP 15 MIXED AIR NODE,COIL:COOLING:DX:SINGLESPEED,PTHP 1 SPD DX CLG COIL 15,Inlet,1
 Non-Parent Node Connection,PTHP 15 COOLING COIL OUTLET NODE,COIL:COOLING:DX:SINGLESPEED,PTHP 1 SPD DX CLG COIL 15,Outlet,1
 Non-Parent Node Connection,PTHP 9 MIXED AIR NODE,COIL:COOLING:DX:SINGLESPEED,PTHP 1 SPD DX CLG COIL 9,Inlet,1
 Non-Parent Node Connection,PTHP 9 COOLING COIL OUTLET NODE,COIL:COOLING:DX:SINGLESPEED,PTHP 1 SPD DX CLG COIL 9,Outlet,1
 Non-Parent Node Connection,PTHP 26 MIXED AIR NODE,COIL:COOLING:DX:SINGLESPEED,PTHP 1 SPD DX CLG COIL 26,Inlet,1
 Non-Parent Node Connection,PTHP 26 COOLING COIL OUTLET NODE,COIL:COOLING:DX:SINGLESPEED,PTHP 1 SPD DX CLG COIL 26,Outlet,1
 Non-Parent Node Connection,PTHP 24 MIXED AIR NODE,COIL:COOLING:DX:SINGLESPEED,PTHP 1 SPD DX CLG COIL 24,Inlet,1
 Non-Parent Node Connection,PTHP 24 COOLING COIL OUTLET NODE,COIL:COOLING:DX:SINGLESPEED,PTHP 1 SPD DX CLG COIL 24,Outlet,1
 Non-Parent Node Connection,PTHP 17 MIXED AIR NODE,COIL:COOLING:DX:SINGLESPEED,PTHP 1 SPD DX CLG COIL 17,Inlet,1
 Non-Parent Node Connection,PTHP 17 COOLING COIL OUTLET NODE,COIL:COOLING:DX:SINGLESPEED,PTHP 1 SPD DX CLG COIL 17,Outlet,1
 Non-Parent Node Connection,PTHP 18 MIXED AIR NODE,COIL:COOLING:DX:SINGLESPEED,PTHP 1 SPD DX CLG COIL 18,Inlet,1
 Non-Parent Node Connection,PTHP 18 COOLING COIL OUTLET NODE,COIL:COOLING:DX:SINGLESPEED,PTHP 1 SPD DX CLG COIL 18,Outlet,1
 Non-Parent Node Connection,PTHP 19 MIXED AIR NODE,COIL:COOLING:DX:SINGLESPEED,PTHP 1 SPD DX CLG COIL 19,Inlet,1
 Non-Parent Node Connection,PTHP 19 COOLING COIL OUTLET NODE,COIL:COOLING:DX:SINGLESPEED,PTHP 1 SPD DX CLG COIL 19,Outlet,1
 Non-Parent Node Connection,PTHP 22 MIXED AIR NODE,COIL:COOLING:DX:SINGLESPEED,PTHP 1 SPD DX CLG COIL 22,Inlet,1
 Non-Parent Node Connection,PTHP 22 COOLING COIL OUTLET NODE,COIL:COOLING:DX:SINGLESPEED,PTHP 1 SPD DX CLG COIL 22,Outlet,1
 Non-Parent Node Connection,PTHP 25 MIXED AIR NODE,COIL:COOLING:DX:SINGLESPEED,PTHP 1 SPD DX CLG COIL 25,Inlet,1
 Non-Parent Node Connection,PTHP 25 COOLING COIL OUTLET NODE,COIL:COOLING:DX:SINGLESPEED,PTHP 1 SPD DX CLG COIL 25,Outlet,1
 Non-Parent Node Connection,PTHP 1 MIXED AIR NODE,COIL:COOLING:DX:SINGLESPEED,PTHP 1 SPD DX CLG COIL 1,Inlet,1
 Non-Parent Node Connection,PTHP 1 COOLING COIL OUTLET NODE,COIL:COOLING:DX:SINGLESPEED,PTHP 1 SPD DX CLG COIL 1,Outlet,1
 Non-Parent Node Connection,PTHP 3 MIXED AIR NODE,COIL:COOLING:DX:SINGLESPEED,PTHP 1 SPD DX CLG COIL 3,Inlet,1
 Non-Parent Node Connection,PTHP 3 COOLING COIL OUTLET NODE,COIL:COOLING:DX:SINGLESPEED,PTHP 1 SPD DX CLG COIL 3,Outlet,1
 Non-Parent Node Connection,PTHP 2 MIXED AIR NODE,COIL:COOLING:DX:SINGLESPEED,PTHP 1 SPD DX CLG COIL 2,Inlet,1
 Non-Parent Node Connection,PTHP 2 COOLING COIL OUTLET NODE,COIL:COOLING:DX:SINGLESPEED,PTHP 1 SPD DX CLG COIL 2,Outlet,1
 Non-Parent Node Connection,PTHP 27 MIXED AIR NODE,COIL:COOLING:DX:SINGLESPEED,PTHP 1 SPD DX CLG COIL 27,Inlet,1
 Non-Parent Node Connection,PTHP 27 COOLING COIL OUTLET NODE,COIL:COOLING:DX:SINGLESPEED,PTHP 1 SPD DX CLG COIL 27,Outlet,1
 Non-Parent Node Connection,PTHP 14 MIXED AIR NODE,COIL:COOLING:DX:SINGLESPEED,PTHP 1 SPD DX CLG COIL 14,Inlet,1
 Non-Parent Node Connection,PTHP 14 COOLING COIL OUTLET NODE,COIL:COOLING:DX:SINGLESPEED,PTHP 1 SPD DX CLG COIL 14,Outlet,1
 Non-Parent Node Connection,PTHP 11 MIXED AIR NODE,COIL:COOLING:DX:SINGLESPEED,PTHP 1 SPD DX CLG COIL 11,Inlet,1
 Non-Parent Node Connection,PTHP 11 COOLING COIL OUTLET NODE,COIL:COOLING:DX:SINGLESPEED,PTHP 1 SPD DX CLG COIL 11,Outlet,1
 Non-Parent Node Connection,PTHP 6 MIXED AIR NODE,COIL:COOLING:DX:SINGLESPEED,PTHP 1 SPD DX CLG COIL 6,Inlet,1
 Non-Parent Node Connection,PTHP 6 COOLING COIL OUTLET NODE,COIL:COOLING:DX:SINGLESPEED,PTHP 1 SPD DX CLG COIL 6,Outlet,1
 Non-Parent Node Connection,PTHP 12 MIXED AIR NODE,COIL:COOLING:DX:SINGLESPEED,PTHP 1 SPD DX CLG COIL 12,Inlet,1
 Non-Parent Node Connection,PTHP 12 COOLING COIL OUTLET NODE,COIL:COOLING:DX:SINGLESPEED,PTHP 1 SPD DX CLG COIL 12,Outlet,1
 Non-Parent Node Connection,PTHP 7 MIXED AIR NODE,COIL:COOLING:DX:SINGLESPEED,PTHP 1 SPD DX CLG COIL 7,Inlet,1
 Non-Parent Node Connection,PTHP 7 COOLING COIL OUTLET NODE,COIL:COOLING:DX:SINGLESPEED,PTHP 1 SPD DX CLG COIL 7,Outlet,1
 Non-Parent Node Connection,PTHP 13 MIXED AIR NODE,COIL:COOLING:DX:SINGLESPEED,PTHP 1 SPD DX CLG COIL 13,Inlet,1
[...]
 Non-Parent Node Connection,PTHP 7 MIXED AIR NODE,OUTDOORAIR:MIXER,PTHP 7 OA MIXER,Outlet,1
 Non-Parent Node Connection,PTHP 7 OA NODE,OUTDOORAIR:MIXER,PTHP 7 OA MIXER,Inlet,1
 Non-Parent Node Connection,PTHP 7 RELIEF AIR NODE,OUTDOORAIR:MIXER,PTHP 7 OA MIXER,ReliefAir,1
 Non-Parent Node Connection,NODE 52,OUTDOORAIR:MIXER,PTHP 7 OA MIXER,Inlet,1
 Non-Parent Node Connection,PTHP 13 MIXED AIR NODE,OUTDOORAIR:MIXER,PTHP 13 OA MIXER,Outlet,1
 Non-Parent Node Connection,PTHP 13 OA NODE,OUTDOORAIR:MIXER,PTHP 13 OA MIXER,Inlet,1
 Non-Parent Node Connection,PTHP 13 RELIEF AIR NODE,OUTDOORAIR:MIXER,PTHP 13 OA MIXER,ReliefAir,1
 Non-Parent Node Connection,NODE 64,OUTDOORAIR:MIXER,PTHP 13 OA MIXER,Inlet,1
 Non-Parent Node Connection,NODE 30,ZONEHVAC:EQUIPMENTCONNECTIONS,THERMAL ZONE 1,ZoneInlet,1
 Non-Parent Node Connection,NODE 29,ZONEHVAC:EQUIPMENTCONNECTIONS,THERMAL ZONE 1,ZoneExhaust,1
 Non-Parent Node Connection,NODE 10,ZONEHVAC:EQUIPMENTCONNECTIONS,THERMAL ZONE 10,ZoneNode,1
 Non-Parent Node Connection,NODE 47,ZONEHVAC:EQUIPMENTCONNECTIONS,THERMAL ZONE 10,ZoneInlet,1
 Non-Parent Node Connection,NODE 46,ZONEHVAC:EQUIPMENTCONNECTIONS,THERMAL ZONE 10,ZoneExhaust,1
 Non-Parent Node Connection,NODE 11,ZONEHVAC:EQUIPMENTCONNECTIONS,THERMAL ZONE 11,ZoneNode,1
 Non-Parent Node Connection,NODE 81,ZONEHVAC:EQUIPMENTCONNECTIONS,THERMAL ZONE 11,ZoneInlet,1
 Non-Parent Node Connection,NODE 80,ZONEHVAC:EQUIPMENTCONNECTIONS,THERMAL ZONE 11,ZoneExhaust,1
 Non-Parent Node Connection,NODE 12,ZONEHVAC:EQUIPMENTCONNECTIONS,THERMAL ZONE 12,ZoneNode,1
 Non-Parent Node Connection,NODE 55,ZONEHVAC:EQUIPMENTCONNECTIONS,THERMAL ZONE 12,ZoneInlet,1
 Non-Parent Node Connection,NODE 54,ZONEHVAC:EQUIPMENTCONNECTIONS,THERMAL ZONE 12,ZoneExhaust,1
 Non-Parent Node Connection,NODE 13,ZONEHVAC:EQUIPMENTCONNECTIONS,THERMAL ZONE 13,ZoneNode,1
 Non-Parent Node Connection,NODE 85,ZONEHVAC:EQUIPMENTCONNECTIONS,THERMAL ZONE 13,ZoneInlet,1
 Non-Parent Node Connection,NODE 84,ZONEHVAC:EQUIPMENTCONNECTIONS,THERMAL ZONE 13,ZoneExhaust,1
 Non-Parent Node Connection,NODE 14,ZONEHVAC:EQUIPMENTCONNECTIONS,THERMAL ZONE 14,ZoneNode,1
 Non-Parent Node Connection,NODE 71,ZONEHVAC:EQUIPMENTCONNECTIONS,THERMAL ZONE 14,ZoneInlet,1
 Non-Parent Node Connection,NODE 70,ZONEHVAC:EQUIPMENTCONNECTIONS,THERMAL ZONE 14,ZoneExhaust,1
 Non-Parent Node Connection,NODE 15,ZONEHVAC:EQUIPMENTCONNECTIONS,THERMAL ZONE 15,ZoneNode,1
 Non-Parent Node Connection,NODE 49,ZONEHVAC:EQUIPMENTCONNECTIONS,THERMAL ZONE 15,ZoneInlet,1
 Non-Parent Node Connection,NODE 48,ZONEHVAC:EQUIPMENTCONNECTIONS,THERMAL ZONE 15,ZoneExhaust,1
 Non-Parent Node Connection,NODE 16,ZONEHVAC:EQUIPMENTCONNECTIONS,THERMAL ZONE 16,ZoneNode,1
 Non-Parent Node Connection,NODE 59,ZONEHVAC:EQUIPMENTCONNECTIONS,THERMAL ZONE 16,ZoneInlet,1
 Non-Parent Node Connection,NODE 58,ZONEHVAC:EQUIPMENTCONNECTIONS,THERMAL ZONE 16,ZoneExhaust,1
 Non-Parent Node Connection,NODE 17,ZONEHVAC:EQUIPMENTCONNECTIONS,THERMAL ZONE 17,ZoneNode,1
 Non-Parent Node Connection,NODE 79,ZONEHVAC:EQUIPMENTCONNECTIONS,THERMAL ZONE 17,ZoneInlet,1
 Non-Parent Node Connection,NODE 78,ZONEHVAC:EQUIPMENTCONNECTIONS,THERMAL ZONE 17,ZoneExhaust,1
 Non-Parent Node Connection,NODE 18,ZONEHVAC:EQUIPMENTCONNECTIONS,THERMAL ZONE 18,ZoneNode,1
 Non-Parent Node Connection,NODE 69,ZONEHVAC:EQUIPMENTCONNECTIONS,THERMAL ZONE 18,ZoneInlet,1
 Non-Parent Node Connection,NODE 68,ZONEHVAC:EQUIPMENTCONNECTIONS,THERMAL ZONE 18,ZoneExhaust,1
 Non-Parent Node Connection,NODE 19,ZONEHVAC:EQUIPMENTCONNECTIONS,THERMAL ZONE 19,ZoneNode,1
 Non-Parent Node Connection,NODE 57,ZONEHVAC:EQUIPMENTCONNECTIONS,THERMAL ZONE 19,ZoneInlet,1
 Non-Parent Node Connection,NODE 56,ZONEHVAC:EQUIPMENTCONNECTIONS,THERMAL ZONE 19,ZoneExhaust,1
 Non-Parent Node Connection,NODE 2,ZONEHVAC:EQUIPMENTCONNECTIONS,THERMAL ZONE 2,ZoneNode,1
 Non-Parent Node Connection,NODE 91,ZONEHVAC:EQUIPMENTCONNECTIONS,THERMAL ZONE 2,ZoneInlet,1
 Non-Parent Node Connection,NODE 90,ZONEHVAC:EQUIPMENTCONNECTIONS,THERMAL ZONE 2,ZoneExhaust,1
 Non-Parent Node Connection,NODE 20,ZONEHVAC:EQUIPMENTCONNECTIONS,THERMAL ZONE 20,ZoneNode,1
 Non-Parent Node Connection,NODE 87,ZONEHVAC:EQUIPMENTCONNECTIONS,THERMAL ZONE 20,ZoneInlet,1
 Non-Parent Node Connection,NODE 86,ZONEHVAC:EQUIPMENTCONNECTIONS,THERMAL ZONE 20,ZoneExhaust,1
 Non-Parent Node Connection,NODE 21,ZONEHVAC:EQUIPMENTCONNECTIONS,THERMAL ZONE 21,ZoneNode,1
 Non-Parent Node Connection,NODE 73,ZONEHVAC:EQUIPMENTCONNECTIONS,THERMAL ZONE 21,ZoneInlet,1
 Non-Parent Node Connection,NODE 72,ZONEHVAC:EQUIPMENTCONNECTIONS,THERMAL ZONE 21,ZoneExhaust,1
 Non-Parent Node Connection,NODE 22,ZONEHVAC:EQUIPMENTCONNECTIONS,THERMAL ZONE 22,ZoneNode,1
 Non-Parent Node Connection,NODE 75,ZONEHVAC:EQUIPMENTCONNECTIONS,THERMAL ZONE 22,ZoneInlet,1
 Non-Parent Node Connection,NODE 74,ZONEHVAC:EQUIPMENTCONNECTIONS,THERMAL ZONE 22,ZoneExhaust,1
 Non-Parent Node Connection,NODE 23,ZONEHVAC:EQUIPMENTCONNECTIONS,THERMAL ZONE 23,ZoneNode,1
 Non-Parent Node Connection,NODE 77,ZONEHVAC:EQUIPMENTCONNECTIONS,THERMAL ZONE 23,ZoneInlet,1
 Non-Parent Node Connection,NODE 76,ZONEHVAC:EQUIPMENTCONNECTIONS,THERMAL ZONE 23,ZoneExhaust,1
 Non-Parent Node Connection,NODE 24,ZONEHVAC:EQUIPMENTCONNECTIONS,THERMAL ZONE 24,ZoneNode,1
 Non-Parent Node Connection,NODE 83,ZONEHVAC:EQUIPMENTCONNECTIONS,THERMAL ZONE 24,ZoneInlet,1
 Non-Parent Node Connection,NODE 82,ZONEHVAC:EQUIPMENTCONNECTIONS,THERMAL ZONE 24,ZoneExhaust,1
 Non-Parent Node Connection,NODE 25,ZONEHVAC:EQUIPMENTCONNECTIONS,THERMAL ZONE 25,ZoneNode,1
 Non-Parent Node Connection,NODE 89,ZONEHVAC:EQUIPMENTCONNECTIONS,THERMAL ZONE 25,ZoneInlet,1
 Non-Parent Node Connection,NODE 88,ZONEHVAC:EQUIPMENTCONNECTIONS,THERMAL ZONE 25,ZoneExhaust,1
 Non-Parent Node Connection,NODE 26,ZONEHVAC:EQUIPMENTCONNECTIONS,THERMAL ZONE 26,ZoneNode,1
 Non-Parent Node Connection,NODE 41,ZONEHVAC:EQUIPMENTCONNECTIONS,THERMAL ZONE 26,ZoneInlet,1
 Non-Parent Node Connection,NODE 40,ZONEHVAC:EQUIPMENTCONNECTIONS,THERMAL ZONE 26,ZoneExhaust,1
 Non-Parent Node Connection,NODE 27,ZONEHVAC:EQUIPMENTCONNECTIONS,THERMAL ZONE 27,ZoneNode,1
 Non-Parent Node Connection,NODE 45,ZONEHVAC:EQUIPMENTCONNECTIONS,THERMAL ZONE 27,ZoneInlet,1
 Non-Parent Node Connection,NODE 44,ZONEHVAC:EQUIPMENTCONNECTIONS,THERMAL ZONE 27,ZoneExhaust,1
 Non-Parent Node Connection,NODE 28,ZONEHVAC:EQUIPMENTCONNECTIONS,THERMAL ZONE 28,ZoneNode,1
 Non-Parent Node Connection,NODE 43,ZONEHVAC:EQUIPMENTCONNECTIONS,THERMAL ZONE 28,ZoneInlet,1
 Non-Parent Node Connection,NODE 42,ZONEHVAC:EQUIPMENTCONNECTIONS,THERMAL ZONE 28,ZoneExhaust,1
 Non-Parent Node Connection,NODE 3,ZONEHVAC:EQUIPMENTCONNECTIONS,THERMAL ZONE 3,ZoneNode,1
 Non-Parent Node Connection,NODE 93,ZONEHVAC:EQUIPMENTCONNECTIONS,THERMAL ZONE 3,ZoneInlet,1
 Non-Parent Node Connection,NODE 92,ZONEHVAC:EQUIPMENTCONNECTIONS,THERMAL ZONE 3,ZoneExhaust,1
 Non-Parent Node Connection,NODE 4,ZONEHVAC:EQUIPMENTCONNECTIONS,THERMAL ZONE 4,ZoneNode,1
 Non-Parent Node Connection,NODE 67,ZONEHVAC:EQUIPMENTCONNECTIONS,THERMAL ZONE 4,ZoneInlet,1
 Non-Parent Node Connection,NODE 66,ZONEHVAC:EQUIPMENTCONNECTIONS,THERMAL ZONE 4,ZoneExhaust,1
 Non-Parent Node Connection,NODE 5,ZONEHVAC:EQUIPMENTCONNECTIONS,THERMAL ZONE 5,ZoneNode,1
 Non-Parent Node Connection,NODE 61,ZONEHVAC:EQUIPMENTCONNECTIONS,THERMAL ZONE 5,ZoneInlet,1
 Non-Parent Node Connection,NODE 60,ZONEHVAC:EQUIPMENTCONNECTIONS,THERMAL ZONE 5,ZoneExhaust,1
 Non-Parent Node Connection,NODE 6,ZONEHVAC:EQUIPMENTCONNECTIONS,THERMAL ZONE 6,ZoneNode,1
 Non-Parent Node Connection,NODE 51,ZONEHVAC:EQUIPMENTCONNECTIONS,THERMAL ZONE 6,ZoneInlet,1
 Non-Parent Node Connection,NODE 50,ZONEHVAC:EQUIPMENTCONNECTIONS,THERMAL ZONE 6,ZoneExhaust,1
 Non-Parent Node Connection,NODE 7,ZONEHVAC:EQUIPMENTCONNECTIONS,THERMAL ZONE 7,ZoneNode,1
 Non-Parent Node Connection,NODE 63,ZONEHVAC:EQUIPMENTCONNECTIONS,THERMAL ZONE 7,ZoneInlet,1
 Non-Parent Node Connection,NODE 62,ZONEHVAC:EQUIPMENTCONNECTIONS,THERMAL ZONE 7,ZoneExhaust,1
 Non-Parent Node Connection,NODE 8,ZONEHVAC:EQUIPMENTCONNECTIONS,THERMAL ZONE 8,ZoneNode,1
 Non-Parent Node Connection,NODE 53,ZONEHVAC:EQUIPMENTCONNECTIONS,THERMAL ZONE 8,ZoneInlet,1
 Non-Parent Node Connection,NODE 52,ZONEHVAC:EQUIPMENTCONNECTIONS,THERMAL ZONE 8,ZoneExhaust,1
 Non-Parent Node Connection,NODE 9,ZONEHVAC:EQUIPMENTCONNECTIONS,THERMAL ZONE 9,ZoneNode,1
 Non-Parent Node Connection,NODE 65,ZONEHVAC:EQUIPMENTCONNECTIONS,THERMAL ZONE 9,ZoneInlet,1
 Non-Parent Node Connection,NODE 64,ZONEHVAC:EQUIPMENTCONNECTIONS,THERMAL ZONE 9,ZoneExhaust,1
 Non-Parent Node Connection,PTHP HEATING COIL OUTLET NODE,FAN:CONSTANTVOLUME,PTHP CV FAN,Inlet,1
 Non-Parent Node Connection,PTHP FAN OUTLET NODE,FAN:CONSTANTVOLUME,PTHP CV FAN,Outlet,1
 Non-Parent Node Connection,PTHP 4 HEATING COIL OUTLET NODE,FAN:CONSTANTVOLUME,PTHP CV FAN 4,Inlet,1
 Non-Parent Node Connection,PTHP 4 FAN OUTLET NODE,FAN:CONSTANTVOLUME,PTHP CV FAN 4,Outlet,1
 Non-Parent Node Connection,PTHP 21 HEATING COIL OUTLET NODE,FAN:CONSTANTVOLUME,PTHP CV FAN 21,Inlet,1
 Non-Parent Node Connection,PTHP 21 FAN OUTLET NODE,FAN:CONSTANTVOLUME,PTHP CV FAN 21,Outlet,1
 Non-Parent Node Connection,PTHP 8 HEATING COIL OUTLET NODE,FAN:CONSTANTVOLUME,PTHP CV FAN 8,Inlet,1
 Non-Parent Node Connection,PTHP 8 FAN OUTLET NODE,FAN:CONSTANTVOLUME,PTHP CV FAN 8,Outlet,1
 Non-Parent Node Connection,PTHP 23 HEATING COIL OUTLET NODE,FAN:CONSTANTVOLUME,PTHP CV FAN 23,Inlet,1
 Non-Parent Node Connection,PTHP 23 FAN OUTLET NODE,FAN:CONSTANTVOLUME,PTHP CV FAN 23,Outlet,1
 Non-Parent Node Connection,PTHP 16 HEATING COIL OUTLET NODE,FAN:CONSTANTVOLUME,PTHP CV FAN 16,Inlet,1
 Non-Parent Node Connection,PTHP 16 FAN OUTLET NODE,FAN:CONSTANTVOLUME,PTHP CV FAN 16,Outlet,1
 Non-Parent Node Connection,PTHP 5 HEATING COIL OUTLET NODE,FAN:CONSTANTVOLUME,PTHP CV FAN 5,Inlet,1
 Non-Parent Node Connection,PTHP 5 FAN OUTLET NODE,FAN:CONSTANTVOLUME,PTHP CV FAN 5,Outlet,1
 Non-Parent Node Connection,PTHP 10 HEATING COIL OUTLET NODE,FAN:CONSTANTVOLUME,PTHP CV FAN 10,Inlet,1
 Non-Parent Node Connection,PTHP 10 FAN OUTLET NODE,FAN:CONSTANTVOLUME,PTHP CV FAN 10,Outlet,1
 Non-Parent Node Connection,PTHP 20 HEATING COIL OUTLET NODE,FAN:CONSTANTVOLUME,PTHP CV FAN 20,Inlet,1
 Non-Parent Node Connection,PTHP 20 FAN OUTLET NODE,FAN:CONSTANTVOLUME,PTHP CV FAN 20,Outlet,1
 Non-Parent Node Connection,PTHP 15 HEATING COIL OUTLET NODE,FAN:CONSTANTVOLUME,PTHP CV FAN 15,Inlet,1
 Non-Parent Node Connection,PTHP 15 FAN OUTLET NODE,FAN:CONSTANTVOLUME,PTHP CV FAN 15,Outlet,1
 Non-Parent Node Connection,PTHP 9 HEATING COIL OUTLET NODE,FAN:CONSTANTVOLUME,PTHP CV FAN 9,Inlet,1
 Non-Parent Node Connection,PTHP 9 FAN OUTLET NODE,FAN:CONSTANTVOLUME,PTHP CV FAN 9,Outlet,1
 Non-Parent Node Connection,PTHP 26 HEATING COIL OUTLET NODE,FAN:CONSTANTVOLUME,PTHP CV FAN 26,Inlet,1
 Non-Parent Node Connection,PTHP 26 FAN OUTLET NODE,FAN:CONSTANTVOLUME,PTHP CV FAN 26,Outlet,1
 Non-Parent Node Connection,PTHP 24 HEATING COIL OUTLET NODE,FAN:CONSTANTVOLUME,PTHP CV FAN 24,Inlet,1
 Non-Parent Node Connection,PTHP 24 FAN OUTLET NODE,FAN:CONSTANTVOLUME,PTHP CV FAN 24,Outlet,1
 Non-Parent Node Connection,PTHP 17 HEATING COIL OUTLET NODE,FAN:CONSTANTVOLUME,PTHP CV FAN 17,Inlet,1
 Non-Parent Node Connection,PTHP 17 FAN OUTLET NODE,FAN:CONSTANTVOLUME,PTHP CV FAN 17,Outlet,1
 Non-Parent Node Connection,PTHP 18 HEATING COIL OUTLET NODE,FAN:CONSTANTVOLUME,PTHP CV FAN 18,Inlet,1
 Non-Parent Node Connection,PTHP 18 FAN OUTLET NODE,FAN:CONSTANTVOLUME,PTHP CV FAN 18,Outlet,1
 Non-Parent Node Connection,PTHP 19 HEATING COIL OUTLET NODE,FAN:CONSTANTVOLUME,PTHP CV FAN 19,Inlet,1
 Non-Parent Node Connection,PTHP 19 FAN OUTLET NODE,FAN:CONSTANTVOLUME,PTHP CV FAN 19,Outlet,1
 Non-Parent Node Connection,PTHP 22 HEATING COIL OUTLET NODE,FAN:CONSTANTVOLUME,PTHP CV FAN 22,Inlet,1
 Non-Parent Node Connection,PTHP 22 FAN OUTLET NODE,FAN:CONSTANTVOLUME,PTHP CV FAN 22,Outlet,1
 Non-Parent Node Connection,PTHP 25 HEATING COIL OUTLET NODE,FAN:CONSTANTVOLUME,PTHP CV FAN 25,Inlet,1
 Non-Parent Node Connection,PTHP 25 FAN OUTLET NODE,FAN:CONSTANTVOLUME,PTHP CV FAN 25,Outlet,1
 Non-Parent Node Connection,PTHP 1 HEATING COIL OUTLET NODE,FAN:CONSTANTVOLUME,PTHP CV FAN 1,Inlet,1
 Non-Parent Node Connection,PTHP 1 FAN OUTLET NODE,FAN:CONSTANTVOLUME,PTHP CV FAN 1,Outlet,1
 Non-Parent Node Connection,PTHP 3 HEATING COIL OUTLET NODE,FAN:CONSTANTVOLUME,PTHP CV FAN 3,Inlet,1
 Non-Parent Node Connection,PTHP 3 FAN OUTLET NODE,FAN:CONSTANTVOLUME,PTHP CV FAN 3,Outlet,1
 Non-Parent Node Connection,PTHP 2 HEATING COIL OUTLET NODE,FAN:CONSTANTVOLUME,PTHP CV FAN 2,Inlet,1
 Non-Parent Node Connection,PTHP 2 FAN OUTLET NODE,FAN:CONSTANTVOLUME,PTHP CV FAN 2,Outlet,1
 Non-Parent Node Connection,PTHP 27 HEATING COIL OUTLET NODE,FAN:CONSTANTVOLUME,PTHP CV FAN 27,Inlet,1
 Non-Parent Node Connection,PTHP 27 FAN OUTLET NODE,FAN:CONSTANTVOLUME,PTHP CV FAN 27,Outlet,1
 Non-Parent Node Connection,PTHP 14 HEATING COIL OUTLET NODE,FAN:CONSTANTVOLUME,PTHP CV FAN 14,Inlet,1
 Non-Parent Node Connection,PTHP 14 FAN OUTLET NODE,FAN:CONSTANTVOLUME,PTHP CV FAN 14,Outlet,1
 Non-Parent Node Connection,PTHP 11 HEATING COIL OUTLET NODE,FAN:CONSTANTVOLUME,PTHP CV FAN 11,Inlet,1
 Non-Parent Node Connection,PTHP 11 FAN OUTLET NODE,FAN:CONSTANTVOLUME,PTHP CV FAN 11,Outlet,1
 Non-Parent Node Connection,PTHP 6 HEATING COIL OUTLET NODE,FAN:CONSTANTVOLUME,PTHP CV FAN 6,Inlet,1
 Non-Parent Node Connection,PTHP 6 FAN OUTLET NODE,FAN:CONSTANTVOLUME,PTHP CV FAN 6,Outlet,1
 Non-Parent Node Connection,PTHP 12 HEATING COIL OUTLET NODE,FAN:CONSTANTVOLUME,PTHP CV FAN 12,Inlet,1
 Non-Parent Node Connection,PTHP 12 FAN OUTLET NODE,FAN:CONSTANTVOLUME,PTHP CV FAN 12,Outlet,1
 Non-Parent Node Connection,PTHP 7 HEATING COIL OUTLET NODE,FAN:CONSTANTVOLUME,PTHP CV FAN 7,Inlet,1
 Non-Parent Node Connection,PTHP 7 FAN OUTLET NODE,FAN:CONSTANTVOLUME,PTHP CV FAN 7,Outlet,1
 Non-Parent Node Connection,PTHP 13 HEATING COIL OUTLET NODE,FAN:CONSTANTVOLUME,PTHP CV FAN 13,Inlet,1
 Non-Parent Node Connection,PTHP 13 FAN OUTLET NODE,FAN:CONSTANTVOLUME,PTHP CV FAN 13,Outlet,1
 Non-Parent Node Connection,PTHP FAN OUTLET NODE,COIL:HEATING:ELECTRIC,PTHP ELEC HTG BACKUP COIL,Inlet,1
 Non-Parent Node Connection,NODE 30,COIL:HEATING:ELECTRIC,PTHP ELEC HTG BACKUP COIL,Outlet,1
 Non-Parent Node Connection,PTHP 4 FAN OUTLET NODE,COIL:HEATING:ELECTRIC,PTHP ELEC HTG BACKUP COIL 4,Inlet,1
 Non-Parent Node Connection,NODE 47,COIL:HEATING:ELECTRIC,PTHP ELEC HTG BACKUP COIL 4,Outlet,1
 Non-Parent Node Connection,PTHP 21 FAN OUTLET NODE,COIL:HEATING:ELECTRIC,PTHP ELEC HTG BACKUP COIL 21,Inlet,1
 Non-Parent Node Connection,NODE 81,COIL:HEATING:ELECTRIC,PTHP ELEC HTG BACKUP COIL 21,Outlet,1
 Non-Parent Node Connection,PTHP 8 FAN OUTLET NODE,COIL:HEATING:ELECTRIC,PTHP ELEC HTG BACKUP COIL 8,Inlet,1
 Non-Parent Node Connection,NODE 55,COIL:HEATING:ELECTRIC,PTHP ELEC HTG BACKUP COIL 8,Outlet,1
 Non-Parent Node Connection,PTHP 23 FAN OUTLET NODE,COIL:HEATING:ELECTRIC,PTHP ELEC HTG BACKUP COIL 23,Inlet,1
 Non-Parent Node Connection,NODE 85,COIL:HEATING:ELECTRIC,PTHP ELEC HTG BACKUP COIL 23,Outlet,1
 Non-Parent Node Connection,PTHP 16 FAN OUTLET NODE,COIL:HEATING:ELECTRIC,PTHP ELEC HTG BACKUP COIL 16,Inlet,1
 Non-Parent Node Connection,NODE 71,COIL:HEATING:ELECTRIC,PTHP ELEC HTG BACKUP COIL 16,Outlet,1
 Non-Parent Node Connection,PTHP 5 FAN OUTLET NODE,COIL:HEATING:ELECTRIC,PTHP ELEC HTG BACKUP COIL 5,Inlet,1
 Non-Parent Node Connection,NODE 49,COIL:HEATING:ELECTRIC,PTHP ELEC HTG BACKUP COIL 5,Outlet,1
 Non-Parent Node Connection,PTHP 10 FAN OUTLET NODE,COIL:HEATING:ELECTRIC,PTHP ELEC HTG BACKUP COIL 10,Inlet,1
 Non-Parent Node Connection,NODE 59,COIL:HEATING:ELECTRIC,PTHP ELEC HTG BACKUP COIL 10,Outlet,1
 Non-Parent Node Connection,PTHP 20 FAN OUTLET NODE,COIL:HEATING:ELECTRIC,PTHP ELEC HTG BACKUP COIL 20,Inlet,1
 Non-Parent Node Connection,NODE 79,COIL:HEATING:ELECTRIC,PTHP ELEC HTG BACKUP COIL 20,Outlet,1
 Non-Parent Node Connection,PTHP 15 FAN OUTLET NODE,COIL:HEATING:ELECTRIC,PTHP ELEC HTG BACKUP COIL 15,Inlet,1
 Non-Parent Node Connection,NODE 69,COIL:HEATING:ELECTRIC,PTHP ELEC HTG BACKUP COIL 15,Outlet,1
 Non-Parent Node Connection,PTHP 9 FAN OUTLET NODE,COIL:HEATING:ELECTRIC,PTHP ELEC HTG BACKUP COIL 9,Inlet,1
 Non-Parent Node Connection,NODE 57,COIL:HEATING:ELECTRIC,PTHP ELEC HTG BACKUP COIL 9,Outlet,1
 Non-Parent Node Connection,PTHP 26 FAN OUTLET NODE,COIL:HEATING:ELECTRIC,PTHP ELEC HTG BACKUP COIL 26,Inlet,1
 Non-Parent Node Connection,NODE 91,COIL:HEATING:ELECTRIC,PTHP ELEC HTG BACKUP COIL 26,Outlet,1
 Non-Parent Node Connection,PTHP 24 FAN OUTLET NODE,COIL:HEATING:ELECTRIC,PTHP ELEC HTG BACKUP COIL 24,Inlet,1
 Non-Parent Node Connection,NODE 87,COIL:HEATING:ELECTRIC,PTHP ELEC HTG BACKUP COIL 24,Outlet,1
 Non-Parent Node Connection,PTHP 17 FAN OUTLET NODE,COIL:HEATING:ELECTRIC,PTHP ELEC HTG BACKUP COIL 17,Inlet,1
 Non-Parent Node Connection,NODE 73,COIL:HEATING:ELECTRIC,PTHP ELEC HTG BACKUP COIL 17,Outlet,1
 Non-Parent Node Connection,PTHP 18 FAN OUTLET NODE,COIL:HEATING:ELECTRIC,PTHP ELEC HTG BACKUP COIL 18,Inlet,1
 Non-Parent Node Connection,NODE 75,COIL:HEATING:ELECTRIC,PTHP ELEC HTG BACKUP COIL 18,Outlet,1
 Non-Parent Node Connection,PTHP 19 FAN OUTLET NODE,COIL:HEATING:ELECTRIC,PTHP ELEC HTG BACKUP COIL 19,Inlet,1
 Non-Parent Node Connection,NODE 77,COIL:HEATING:ELECTRIC,PTHP ELEC HTG BACKUP COIL 19,Outlet,1
 Non-Parent Node Connection,PTHP 22 FAN OUTLET NODE,COIL:HEATING:ELECTRIC,PTHP ELEC HTG BACKUP COIL 22,Inlet,1
 Non-Parent Node Connection,NODE 83,COIL:HEATING:ELECTRIC,PTHP ELEC HTG BACKUP COIL 22,Outlet,1
 Non-Parent Node Connection,PTHP 25 FAN OUTLET NODE,COIL:HEATING:ELECTRIC,PTHP ELEC HTG BACKUP COIL 25,Inlet,1
 Non-Parent Node Connection,NODE 89,COIL:HEATING:ELECTRIC,PTHP ELEC HTG BACKUP COIL 25,Outlet,1
 Non-Parent Node Connection,PTHP 1 FAN OUTLET NODE,COIL:HEATING:ELECTRIC,PTHP ELEC HTG BACKUP COIL 1,Inlet,1
 Non-Parent Node Connection,NODE 41,COIL:HEATING:ELECTRIC,PTHP ELEC HTG BACKUP COIL 1,Outlet,1
 Non-Parent Node Connection,PTHP 3 FAN OUTLET NODE,COIL:HEATING:ELECTRIC,PTHP ELEC HTG BACKUP COIL 3,Inlet,1
 Non-Parent Node Connection,NODE 45,COIL:HEATING:ELECTRIC,PTHP ELEC HTG BACKUP COIL 3,Outlet,1
 Non-Parent Node Connection,PTHP 2 FAN OUTLET NODE,COIL:HEATING:ELECTRIC,PTHP ELEC HTG BACKUP COIL 2,Inlet,1
 Non-Parent Node Connection,NODE 43,COIL:HEATING:ELECTRIC,PTHP ELEC HTG BACKUP COIL 2,Outlet,1
 Non-Parent Node Connection,PTHP 27 FAN OUTLET NODE,COIL:HEATING:ELECTRIC,PTHP ELEC HTG BACKUP COIL 27,Inlet,1
 Non-Parent Node Connection,NODE 93,COIL:HEATING:ELECTRIC,PTHP ELEC HTG BACKUP COIL 27,Outlet,1
 Non-Parent Node Connection,PTHP 14 FAN OUTLET NODE,COIL:HEATING:ELECTRIC,PTHP ELEC HTG BACKUP COIL 14,Inlet,1
 Non-Parent Node Connection,NODE 67,COIL:HEATING:ELECTRIC,PTHP ELEC HTG BACKUP COIL 14,Outlet,1
 Non-Parent Node Connection,PTHP 11 FAN OUTLET NODE,COIL:HEATING:ELECTRIC,PTHP ELEC HTG BACKUP COIL 11,Inlet,1
 Non-Parent Node Connection,NODE 61,COIL:HEATING:ELECTRIC,PTHP ELEC HTG BACKUP COIL 11,Outlet,1
 Non-Parent Node Connection,PTHP 6 FAN OUTLET NODE,COIL:HEATING:ELECTRIC,PTHP ELEC HTG BACKUP COIL 6,Inlet,1
 Non-Parent Node Connection,NODE 51,COIL:HEATING:ELECTRIC,PTHP ELEC HTG BACKUP COIL 6,Outlet,1
 Non-Parent Node Connection,PTHP 12 FAN OUTLET NODE,COIL:HEATING:ELECTRIC,PTHP ELEC HTG BACKUP COIL 12,Inlet,1
 Non-Parent Node Connection,NODE 63,COIL:HEATING:ELECTRIC,PTHP ELEC HTG BACKUP COIL 12,Outlet,1
 Non-Parent Node Connection,PTHP 7 FAN OUTLET NODE,COIL:HEATING:ELECTRIC,PTHP ELEC HTG BACKUP COIL 7,Inlet,1
 Non-Parent Node Connection,NODE 53,COIL:HEATING:ELECTRIC,PTHP ELEC HTG BACKUP COIL 7,Outlet,1
 Non-Parent Node Connection,PTHP 13 FAN OUTLET NODE,COIL:HEATING:ELECTRIC,PTHP ELEC HTG BACKUP COIL 13,Inlet,1
 Non-Parent Node Connection,NODE 65,COIL:HEATING:ELECTRIC,PTHP ELEC HTG BACKUP COIL 13,Outlet,1
 Non-Parent Node Connection,NODE 31,PUMP:CONSTANTSPEED,PUMP CONSTANT SPEED 1,Inlet,1
 Non-Parent Node Connection,NODE 37,PUMP:CONSTANTSPEED,PUMP CONSTANT SPEED 1,Outlet,1
