Program Version,EnergyPlus, Version 23.2.0-7636e6b3e9, YMD=2024.07.17 07:03
! <Version>, Version ID
 Version, 23.2
! <Timesteps per Hour>, #TimeSteps, Minutes per TimeStep {minutes}
 Timesteps per Hour,  6, 10
! <System Convergence Limits>, Minimum System TimeStep {minutes}, Max HVAC Iterations, Minimum Plant Iterations, Maximum Plant Iterations
 System Convergence Limits, 1, 20, 2, 8
! <Simulation Control>, Do Zone Sizing, Do System Sizing, Do Plant Sizing, Do Design Days, Do Weather Simulation, Do HVAC Sizing Simulation
 Simulation Control, Yes, Yes, Yes, Yes, Yes, Yes
! <Performance Precision Tradeoffs>, Use Coil Direct Simulation, Zone Radiant Exchange Algorithm, Override Mode, Number of Timestep In Hour, Force Euler Method, Minimum Number of Warmup Days, Force Suppress All Begin Environment Resets, Minimum System Timestep, MaxZoneTempDiff, MaxAllowedDelTemp
 Performance Precision Tradeoffs, No, ScriptF, Normal, 6, No, 1, No, 1.0, 0.300, 2.0000E-003
! <Output Reporting Tolerances>, Tolerance for Time Heating Setpoint Not Met, Tolerance for Zone Cooling Setpoint Not Met Time
 Output Reporting Tolerances, 0.200, 0.200, 
! <Site:GroundTemperature:BuildingSurface>,Jan{C},Feb{C},Mar{C},Apr{C},May{C},Jun{C},Jul{C},Aug{C},Sep{C},Oct{C},Nov{C},Dec{C}
 Site:GroundTemperature:BuildingSurface,  18.00,  18.00,  18.00,  18.00,  18.00,  18.00,  18.00,  18.00,  18.00,  18.00,  18.00,  18.00
! <Site:GroundTemperature:FCfactorMethod>,Jan{C},Feb{C},Mar{C},Apr{C},May{C},Jun{C},Jul{C},Aug{C},Sep{C},Oct{C},Nov{C},Dec{C}
 Site:GroundTemperature:FCfactorMethod,  -1.50,  -6.19,  -7.46,  -6.35,  -0.03,   7.05,  13.71,  18.53,  19.94,  17.67,  12.21,   5.33
! <Site:GroundTemperature:Shallow>,Jan{C},Feb{C},Mar{C},Apr{C},May{C},Jun{C},Jul{C},Aug{C},Sep{C},Oct{C},Nov{C},Dec{C}
 Site:GroundTemperature:Shallow,  13.00,  13.00,  13.00,  13.00,  13.00,  13.00,  13.00,  13.00,  13.00,  13.00,  13.00,  13.00
! <Site:GroundTemperature:Deep>,Jan{C},Feb{C},Mar{C},Apr{C},May{C},Jun{C},Jul{C},Aug{C},Sep{C},Oct{C},Nov{C},Dec{C}
 Site:GroundTemperature:Deep,  16.00,  16.00,  16.00,  16.00,  16.00,  16.00,  16.00,  16.00,  16.00,  16.00,  16.00,  16.00
! <Site:GroundReflectance>,Jan{dimensionless},Feb{dimensionless},Mar{dimensionless},Apr{dimensionless},May{dimensionless},Jun{dimensionless},Jul{dimensionless},Aug{dimensionless},Sep{dimensionless},Oct{dimensionless},Nov{dimensionless},Dec{dimensionless}
 Site:GroundReflectance,  0.20,  0.20,  0.20,  0.20,  0.20,  0.20,  0.20,  0.20,  0.20,  0.20,  0.20,  0.20
! <Site:GroundReflectance:SnowModifier>, Normal, Daylighting {dimensionless}
 Site:GroundReflectance:SnowModifier,   1.000,   1.000
! <Site:GroundReflectance:Snow>,Jan{dimensionless},Feb{dimensionless},Mar{dimensionless},Apr{dimensionless},May{dimensionless},Jun{dimensionless},Jul{dimensionless},Aug{dimensionless},Sep{dimensionless},Oct{dimensionless},Nov{dimensionless},Dec{dimensionless}
 Site:GroundReflectance:Snow,  0.20,  0.20,  0.20,  0.20,  0.20,  0.20,  0.20,  0.20,  0.20,  0.20,  0.20,  0.20
! <Site:GroundReflectance:Snow:Daylighting>,Jan{dimensionless},Feb{dimensionless},Mar{dimensionless},Apr{dimensionless},May{dimensionless},Jun{dimensionless},Jul{dimensionless},Aug{dimensionless},Sep{dimensionless},Oct{dimensionless},Nov{dimensionless},Dec{dimensionless}
 Site:GroundReflectance:Snow:Daylighting,  0.20,  0.20,  0.20,  0.20,  0.20,  0.20,  0.20,  0.20,  0.20,  0.20,  0.20,  0.20
! <Environment:Weather Station>,Wind Sensor Height Above Ground {m},Wind Speed Profile Exponent {},Wind Speed Profile Boundary Layer Thickness {m},Air Temperature Sensor Height Above Ground {m},Wind Speed Modifier Coefficient-Internal,Temperature Modifier Coefficient-Internal
Environment:Weather Station,10.000,0.140,270.000,1.500,1.586,9.750E-003
! <Site:Location>, Location Name, Latitude {N+/S- Deg}, Longitude {E+/W- Deg},  Time Zone Number {GMT+/-}, Elevation {m},  Standard Pressure at Elevation {Pa}, Standard RhoAir at Elevation
Site:Location,Montreal Int'l PQ CAN WYEC2-B-94792 WMO#=716270,45.47,-73.75,-5.00,36.00,100893,1.1992
! <Site Water Mains Temperature Information>,Calculation Method{},Water Mains Temperature Schedule Name{},Annual Average Outdoor Air Temperature{C},Maximum Difference In Monthly Average Outdoor Air Temperatures{deltaC},Fixed Default Water Mains Temperature{C}
Site Water Mains Temperature Information,FixedDefault,NA,NA,NA,10.0
! <Building Information>, Building Name,North Axis {deg},Terrain,  Loads Convergence Tolerance Value,Temperature Convergence Tolerance Value,  Solar Distribution,Maximum Number of Warmup Days,Minimum Number of Warmup Days
 Building Information,Building 1,0.000,Suburbs,4.00000E-002,0.40000,FullExterior,25,1
! <Inside Convection Algorithm>, Algorithm {Simple | TARP | CeilingDiffuser | AdaptiveConvectionAlgorithm}
Inside Convection Algorithm,TARP
! <Outside Convection Algorithm>, Algorithm {SimpleCombined | TARP | MoWitt | DOE-2 | AdaptiveConvectionAlgorithm}
Outside Convection Algorithm,DOE-2
! <Sky Radiance Distribution>, Value {Anisotropic}
Sky Radiance Distribution,Anisotropic
! <Zone Air Solution Algorithm>, Algorithm {ThirdOrderBackwardDifference | AnalyticalSolution | EulerMethod}, Space Heat Balance Sizing, Space Heat Balance Simulation
 Zone Air Solution Algorithm, AnalyticalSolution, No, No
! <Zone Air Carbon Dioxide Balance Simulation>, Simulation {Yes/No}, Carbon Dioxide Concentration
 Zone Air Carbon Dioxide Balance Simulation, No,N/A
! <Zone Air Generic Contaminant Balance Simulation>, Simulation {Yes/No}, Generic Contaminant Concentration
 Zone Air Generic Contaminant Balance Simulation, No,N/A
! <Zone Air Mass Flow Balance Simulation>, Enforce Mass Balance, Adjust Zone Mixing and Return {AdjustMixingOnly | AdjustReturnOnly | AdjustMixingThenReturn | AdjustReturnThenMixing | None}, Adjust Zone Infiltration {AddInfiltration | AdjustInfiltration | None}, Infiltration Zones {MixingSourceZonesOnly | AllZones}
 Zone Air Mass Flow Balance Simulation, No,N/A,N/A,N/A
! <HVACSystemRootFindingAlgorithm>, Value {RegulaFalsi | Bisection | BisectionThenRegulaFalsi | RegulaFalsiThenBisection}
 HVACSystemRootFindingAlgorithm, RegulaFalsi
! <Environment:Site Atmospheric Variation>,Wind Speed Profile Exponent {},Wind Speed Profile Boundary Layer Thickness {m},Air Temperature Gradient Coefficient {K/m}
Environment:Site Atmospheric Variation,0.220,370.000,6.500000E-003
! <Surface Geometry>,Starting Corner,Vertex Input Direction,Coordinate System,Daylight Reference Point Coordinate System,Rectangular (Simple) Surface Coordinate System
 Surface Geometry,UpperLeftCorner,Counterclockwise,RelativeCoordinateSystem,RelativeCoordinateSystem,RelativeToZoneOrigin
! <Surface Heat Transfer Algorithm>, Value {CTF - ConductionTransferFunction | EMPD - MoisturePenetrationDepthConductionTransferFunction | CondFD - ConductionFiniteDifference | HAMT - CombinedHeatAndMoistureFiniteElement} - Description,Inside Surface Max Temperature Limit{C}, Surface Convection Coefficient Lower Limit {W/m2-K}, Surface Convection Coefficient Upper Limit {W/m2-K}
Surface Heat Transfer Algorithm, CTF - ConductionTransferFunction,200,0.10,1000.0
! <Shading Summary>, Number of Fixed Detached Shades, Number of Building Detached Shades, Number of Attached Shades
 Shading Summary,0,24,0
! <Zone Summary>, Number of Zones, Number of Zone Surfaces, Number of SubSurfaces
 Zone Summary,23,258,106
! <Zone Information>,Zone Name,North Axis {deg},Origin X-Coordinate {m},Origin Y-Coordinate {m},Origin Z-Coordinate {m},Centroid X-Coordinate {m},Centroid Y-Coordinate {m},Centroid Z-Coordinate {m},Type,Zone Multiplier,Zone List Multiplier,Minimum X {m},Maximum X {m},Minimum Y {m},Maximum Y {m},Minimum Z {m},Maximum Z {m},Ceiling Height {m},Volume {m3},Zone Inside Convection Algorithm {Simple-Detailed-CeilingDiffuser-TrombeWall},Zone Outside Convection Algorithm {Simple-Detailed-Tarp-MoWitt-DOE-2-BLAST}, Floor Area {m2},Exterior Gross Wall Area {m2},Exterior Net Wall Area {m2},Exterior Window Area {m2}, Number of Surfaces, Number of SubSurfaces, Number of Shading SubSurfaces,  Part of Total Building Area
 Zone Information, THERMAL ZONE 1,0.0,7.00,22.00,3.05,8.00,11.00,4.57,1,1,1,7.00,9.00,0.00,22.00,3.05,6.10,3.05,134.11,TARP,DOE-2,44.00,12.19,8.53,3.66,10,8,0,Yes
 Zone Information, THERMAL ZONE 10,0.0,9.00,14.50,3.05,12.50,18.25,4.57,1,1,1,9.00,16.00,14.50,22.00,3.05,6.10,3.05,160.02,TARP,DOE-2,52.50,44.20,30.94,13.26,6,4,0,Yes
 Zone Information, THERMAL ZONE 11,0.0,0.00,7.25,21.05,3.50,10.88,22.57,1,10,1,0.00,7.00,7.25,14.50,21.05,24.10,3.05,154.69,TARP,DOE-2,50.75,86.87,60.81,26.06,6,4,0,Yes
 Zone Information, THERMAL ZONE 12,0.0,9.00,14.50,21.05,12.50,18.25,22.57,1,10,1,9.00,16.00,14.50,22.00,21.05,24.10,3.05,160.02,TARP,DOE-2,52.50,88.39,61.87,26.52,6,4,0,Yes
 Zone Information, THERMAL ZONE 13,0.0,9.00,14.50,39.10,12.50,18.25,40.62,1,1,1,9.00,16.00,14.50,22.00,39.10,42.14,3.05,160.02,TARP,DOE-2,52.50,88.39,61.87,26.52,6,4,0,Yes
 Zone Information, THERMAL ZONE 14,0.0,7.00,22.00,21.05,8.00,11.00,22.57,1,10,1,7.00,9.00,0.00,22.00,21.05,24.10,3.05,134.11,TARP,DOE-2,44.00,146.30,102.41,43.89,10,8,0,Yes
 Zone Information, THERMAL ZONE 15,0.0,16.00,14.50,21.05,12.50,10.75,22.57,1,10,1,9.00,16.00,7.00,14.50,21.05,24.10,3.05,160.02,TARP,DOE-2,52.50,88.39,61.87,26.52,6,4,0,Yes
 Zone Information, THERMAL ZONE 16,0.0,7.00,7.25,21.05,3.50,3.63,22.57,1,10,1,0.00,7.00,0.00,7.25,21.05,24.10,3.05,154.69,TARP,DOE-2,50.75,86.87,60.81,26.06,6,4,0,Yes
 Zone Information, THERMAL ZONE 17,0.0,0.00,14.50,21.05,3.50,18.25,22.57,1,10,1,0.00,7.00,14.50,22.00,21.05,24.10,3.05,160.02,TARP,DOE-2,52.50,88.39,61.87,26.52,6,4,0,Yes
 Zone Information, THERMAL ZONE 18,0.0,16.00,7.00,39.10,12.50,3.50,40.62,1,1,1,9.00,16.00,0.00,7.00,39.10,42.14,3.05,149.35,TARP,DOE-2,49.00,85.34,59.74,25.60,6,4,0,Yes
 Zone Information, THERMAL ZONE 19,0.0,16.00,14.50,39.10,12.50,10.75,40.62,1,1,1,9.00,16.00,7.00,14.50,39.10,42.14,3.05,160.02,TARP,DOE-2,52.50,88.39,61.87,26.52,6,4,0,Yes
 Zone Information, THERMAL ZONE 2,0.0,16.00,14.50,0.00,8.05,11.65,1.52,1,1,1,0.00,16.00,0.00,22.00,0.00,3.05,3.05,912.88,TARP,DOE-2,299.50,231.65,162.15,69.49,8,6,0,Yes
 Zone Information, THERMAL ZONE 20,0.0,7.00,7.25,39.10,3.50,3.63,40.62,1,1,1,0.00,7.00,0.00,7.25,39.10,42.14,3.05,154.69,TARP,DOE-2,50.75,86.87,60.81,26.06,6,4,0,Yes
 Zone Information, THERMAL ZONE 21,0.0,7.00,22.00,39.10,8.00,11.00,40.62,1,1,1,7.00,9.00,0.00,22.00,39.10,42.14,3.05,134.11,TARP,DOE-2,44.00,146.30,102.41,43.89,10,8,0,Yes
 Zone Information, THERMAL ZONE 22,0.0,0.00,7.25,39.10,3.50,10.88,40.62,1,1,1,0.00,7.00,7.25,14.50,39.10,42.14,3.05,154.69,TARP,DOE-2,50.75,86.87,60.81,26.06,6,4,0,Yes
 Zone Information, THERMAL ZONE 23,0.0,0.00,14.50,39.10,3.50,18.25,40.62,1,1,1,0.00,7.00,14.50,22.00,39.10,42.14,3.05,160.02,TARP,DOE-2,52.50,88.39,61.87,26.52,6,4,0,Yes
 Zone Information, THERMAL ZONE 24,0.0,16.00,14.50,0.00,12.50,18.25,1.52,1,1,1,9.00,16.00,14.50,22.00,0.00,3.05,3.05,160.02,TARP,DOE-2,52.50,88.39,61.87,26.52,6,4,0,Yes
 Zone Information, THERMAL ZONE 3,0.0,0.00,7.25,3.05,3.50,10.88,4.57,1,1,1,0.00,7.00,7.25,14.50,3.05,6.10,3.05,154.69,TARP,DOE-2,50.75,22.10,15.47,6.63,6,4,0,Yes
 Zone Information, THERMAL ZONE 5,0.0,16.00,7.00,21.05,12.50,3.50,22.57,1,10,1,9.00,16.00,0.00,7.00,21.05,24.10,3.05,149.35,TARP,DOE-2,49.00,85.34,59.74,25.60,6,4,0,Yes
 Zone Information, THERMAL ZONE 6,0.0,7.00,7.25,3.05,3.50,3.63,4.57,1,1,1,0.00,7.00,0.00,7.25,3.05,6.10,3.05,154.69,TARP,DOE-2,50.75,43.43,30.40,13.03,6,4,0,Yes
 Zone Information, THERMAL ZONE 7,0.0,16.00,7.00,3.05,12.50,3.50,4.57,1,1,1,9.00,16.00,0.00,7.00,3.05,6.10,3.05,149.35,TARP,DOE-2,49.00,42.67,29.87,12.80,6,4,0,Yes
 Zone Information, THERMAL ZONE 8,0.0,16.00,14.50,3.05,12.50,10.75,4.57,1,1,1,9.00,16.00,7.00,14.50,3.05,6.10,3.05,160.02,TARP,DOE-2,52.50,22.86,16.00,6.86,6,4,0,Yes
 Zone Information, THERMAL ZONE 9,0.0,0.00,14.50,3.05,3.50,18.25,4.57,1,1,1,0.00,7.00,14.50,22.00,3.05,6.10,3.05,160.02,TARP,DOE-2,52.50,44.20,30.94,13.26,6,4,0,Yes
! <Zone Internal Gains Nominal>,Zone Name, Floor Area {m2},# Occupants,Area per Occupant {m2/person},Occupant per Area {person/m2},Interior Lighting {W/m2},Electric Load {W/m2},Gas Load {W/m2},Other Load {W/m2},Hot Water Eq {W/m2},Steam Equipment {W/m2},Sum Loads per Area {W/m2},Outdoor Controlled Baseboard Heat
 Zone Internal Gains Nominal, THERMAL ZONE 1,44.00,0.0,N/A,0.000,0.000,0.000,0.000,0.000,0.000,0.000,0.000,No
 Zone Internal Gains Nominal, THERMAL ZONE 10,52.50,1.5,35.324,2.831E-002,0.000,8.150,0.000,0.000,0.000,0.000,8.150,No
 Zone Internal Gains Nominal, THERMAL ZONE 11,50.75,1.4,35.324,2.831E-002,0.000,8.150,0.000,0.000,0.000,0.000,8.150,No
 Zone Internal Gains Nominal, THERMAL ZONE 12,52.50,1.5,35.324,2.831E-002,0.000,8.150,0.000,0.000,0.000,0.000,8.150,No
 Zone Internal Gains Nominal, THERMAL ZONE 13,52.50,1.5,35.324,2.831E-002,0.000,8.150,0.000,0.000,0.000,0.000,8.150,No
 Zone Internal Gains Nominal, THERMAL ZONE 14,44.00,1.2,35.324,2.831E-002,0.000,8.150,0.000,0.000,0.000,0.000,8.150,No
 Zone Internal Gains Nominal, THERMAL ZONE 15,52.50,1.5,35.324,2.831E-002,0.000,8.150,0.000,0.000,0.000,0.000,8.150,No
 Zone Internal Gains Nominal, THERMAL ZONE 16,50.75,1.4,35.324,2.831E-002,0.000,8.150,0.000,0.000,0.000,0.000,8.150,No
 Zone Internal Gains Nominal, THERMAL ZONE 17,52.50,0.0,N/A,0.000,0.000,0.000,0.000,0.000,0.000,0.000,0.000,No
 Zone Internal Gains Nominal, THERMAL ZONE 18,49.00,1.4,35.324,2.831E-002,0.000,8.150,0.000,0.000,0.000,0.000,8.150,No
 Zone Internal Gains Nominal, THERMAL ZONE 19,52.50,1.5,35.324,2.831E-002,0.000,8.150,0.000,0.000,0.000,0.000,8.150,No
 Zone Internal Gains Nominal, THERMAL ZONE 2,299.50,0.0,N/A,0.000,0.000,0.000,0.000,0.000,0.000,0.000,0.000,No
 Zone Internal Gains Nominal, THERMAL ZONE 20,50.75,1.4,35.324,2.831E-002,0.000,8.150,0.000,0.000,0.000,0.000,8.150,No
 Zone Internal Gains Nominal, THERMAL ZONE 21,44.00,0.0,N/A,0.000,0.000,0.000,0.000,0.000,0.000,0.000,0.000,No
 Zone Internal Gains Nominal, THERMAL ZONE 22,50.75,1.4,35.324,2.831E-002,0.000,8.150,0.000,0.000,0.000,0.000,8.150,No
 Zone Internal Gains Nominal, THERMAL ZONE 23,52.50,1.5,35.324,2.831E-002,0.000,8.150,0.000,0.000,0.000,0.000,8.150,No
 Zone Internal Gains Nominal, THERMAL ZONE 24,52.50,1.5,35.324,2.831E-002,0.000,8.150,0.000,0.000,0.000,0.000,8.150,No
 Zone Internal Gains Nominal, THERMAL ZONE 3,50.75,1.4,35.324,2.831E-002,0.000,8.150,0.000,0.000,0.000,0.000,8.150,No
 Zone Internal Gains Nominal, THERMAL ZONE 5,49.00,1.4,35.324,2.831E-002,0.000,8.150,0.000,0.000,0.000,0.000,8.150,No
 Zone Internal Gains Nominal, THERMAL ZONE 6,50.75,1.4,35.324,2.831E-002,0.000,8.150,0.000,0.000,0.000,0.000,8.150,No
 Zone Internal Gains Nominal, THERMAL ZONE 7,49.00,1.4,35.324,2.831E-002,0.000,8.150,0.000,0.000,0.000,0.000,8.150,No
 Zone Internal Gains Nominal, THERMAL ZONE 8,52.50,1.5,35.324,2.831E-002,0.000,8.150,0.000,0.000,0.000,0.000,8.150,No
 Zone Internal Gains Nominal, THERMAL ZONE 9,52.50,1.5,35.324,2.831E-002,0.000,8.150,0.000,0.000,0.000,0.000,8.150,No
! <People Internal Gains Nominal>,Name,Schedule Name,Zone Name,Zone Floor Area {m2},# Zone Occupants,Number of People {},People/Floor Area {person/m2},Floor Area per person {m2/person},Fraction Radiant,Fraction Convected,Sensible Fraction Calculation,Activity level,ASHRAE 55 Warnings,Carbon Dioxide Generation Rate,Nominal Minimum Number of People,Nominal Maximum Number of People
 People Internal Gains Nominal, SPACE 109 PEOPLE 3,MIDRISEAPARTMENT APARTMENT OCC 3,THERMAL ZONE 10,52.50,1.5,1.5,2.831E-002,35.324,0.300,0.700,AutoCalculate,MIDRISEAPARTMENT ACTIVITY 3,No,3.8200E-008,0,1
 People Internal Gains Nominal, SPACE 112 PEOPLE 3,MIDRISEAPARTMENT APARTMENT OCC 3,THERMAL ZONE 5,49.00,1.4,1.4,2.831E-002,35.324,0.300,0.700,AutoCalculate,MIDRISEAPARTMENT ACTIVITY 3,No,3.8200E-008,0,1
 People Internal Gains Nominal, SPACE 103 PEOPLE 3,MIDRISEAPARTMENT APARTMENT OCC 3,THERMAL ZONE 6,50.75,1.4,1.4,2.831E-002,35.324,0.300,0.700,AutoCalculate,MIDRISEAPARTMENT ACTIVITY 3,No,3.8200E-008,0,1
 People Internal Gains Nominal, SPACE 105 PEOPLE 3,MIDRISEAPARTMENT APARTMENT OCC 3,THERMAL ZONE 7,49.00,1.4,1.4,2.831E-002,35.324,0.300,0.700,AutoCalculate,MIDRISEAPARTMENT ACTIVITY 3,No,3.8200E-008,0,1
 People Internal Gains Nominal, SPACE 106 PEOPLE 3,MIDRISEAPARTMENT APARTMENT OCC 3,THERMAL ZONE 8,52.50,1.5,1.5,2.831E-002,35.324,0.300,0.700,AutoCalculate,MIDRISEAPARTMENT ACTIVITY 3,No,3.8200E-008,0,1
 People Internal Gains Nominal, SPACE 107 PEOPLE 3,MIDRISEAPARTMENT APARTMENT OCC 3,THERMAL ZONE 3,50.75,1.4,1.4,2.831E-002,35.324,0.300,0.700,AutoCalculate,MIDRISEAPARTMENT ACTIVITY 3,No,3.8200E-008,0,1
 People Internal Gains Nominal, SPACE 108 PEOPLE 3,MIDRISEAPARTMENT APARTMENT OCC 3,THERMAL ZONE 9,52.50,1.5,1.5,2.831E-002,35.324,0.300,0.700,AutoCalculate,MIDRISEAPARTMENT ACTIVITY 3,No,3.8200E-008,0,1
 People Internal Gains Nominal, SPACE 110 PEOPLE 3,MIDRISEAPARTMENT APARTMENT OCC 3,THERMAL ZONE 11,50.75,1.4,1.4,2.831E-002,35.324,0.300,0.700,AutoCalculate,MIDRISEAPARTMENT ACTIVITY 3,No,3.8200E-008,0,1
 People Internal Gains Nominal, SPACE 111 PEOPLE 3,MIDRISEAPARTMENT APARTMENT OCC 3,THERMAL ZONE 12,52.50,1.5,1.5,2.831E-002,35.324,0.300,0.700,AutoCalculate,MIDRISEAPARTMENT ACTIVITY 3,No,3.8200E-008,0,1
 People Internal Gains Nominal, SPACE 120 PEOPLE 3,MIDRISEAPARTMENT APARTMENT OCC 3,THERMAL ZONE 13,52.50,1.5,1.5,2.831E-002,35.324,0.300,0.700,AutoCalculate,MIDRISEAPARTMENT ACTIVITY 3,No,3.8200E-008,0,1
 People Internal Gains Nominal, SPACE 113 PEOPLE 3,MIDRISEAPARTMENT APARTMENT OCC 3,THERMAL ZONE 14,44.00,1.2,1.2,2.831E-002,35.324,0.300,0.700,AutoCalculate,MIDRISEAPARTMENT ACTIVITY 3,No,3.8200E-008,0,1
 People Internal Gains Nominal, SPACE 114 PEOPLE 3,MIDRISEAPARTMENT APARTMENT OCC 3,THERMAL ZONE 15,52.50,1.5,1.5,2.831E-002,35.324,0.300,0.700,AutoCalculate,MIDRISEAPARTMENT ACTIVITY 3,No,3.8200E-008,0,1
 People Internal Gains Nominal, SPACE 115 PEOPLE 3,MIDRISEAPARTMENT APARTMENT OCC 3,THERMAL ZONE 16,50.75,1.4,1.4,2.831E-002,35.324,0.300,0.700,AutoCalculate,MIDRISEAPARTMENT ACTIVITY 3,No,3.8200E-008,0,1
 People Internal Gains Nominal, SPACE 117 PEOPLE 3,MIDRISEAPARTMENT APARTMENT OCC 3,THERMAL ZONE 18,49.00,1.4,1.4,2.831E-002,35.324,0.300,0.700,AutoCalculate,MIDRISEAPARTMENT ACTIVITY 3,No,3.8200E-008,0,1
 People Internal Gains Nominal, SPACE 118 PEOPLE 3,MIDRISEAPARTMENT APARTMENT OCC 3,THERMAL ZONE 19,52.50,1.5,1.5,2.831E-002,35.324,0.300,0.700,AutoCalculate,MIDRISEAPARTMENT ACTIVITY 3,No,3.8200E-008,0,1
 People Internal Gains Nominal, SPACE 119 PEOPLE 3,MIDRISEAPARTMENT APARTMENT OCC 3,THERMAL ZONE 20,50.75,1.4,1.4,2.831E-002,35.324,0.300,0.700,AutoCalculate,MIDRISEAPARTMENT ACTIVITY 3,No,3.8200E-008,0,1
 People Internal Gains Nominal, SPACE 122 PEOPLE 3,MIDRISEAPARTMENT APARTMENT OCC 3,THERMAL ZONE 22,50.75,1.4,1.4,2.831E-002,35.324,0.300,0.700,AutoCalculate,MIDRISEAPARTMENT ACTIVITY 3,No,3.8200E-008,0,1
 People Internal Gains Nominal, SPACE 123 PEOPLE 3,MIDRISEAPARTMENT APARTMENT OCC 3,THERMAL ZONE 23,52.50,1.5,1.5,2.831E-002,35.324,0.300,0.700,AutoCalculate,MIDRISEAPARTMENT ACTIVITY 3,No,3.8200E-008,0,1
 People Internal Gains Nominal, SPACE 1 PEOPLE 2,MIDRISEAPARTMENT APARTMENT OCC 2,THERMAL ZONE 24,52.50,1.5,1.5,2.831E-002,35.324,0.300,0.700,AutoCalculate,MIDRISEAPARTMENT ACTIVITY 2,No,3.8200E-008,0,1
! <ElectricEquipment Internal Gains Nominal>,Name,Schedule Name,Zone Name,Zone Floor Area {m2},# Zone Occupants,Equipment Level {W},Equipment/Floor Area {W/m2},Equipment per person {W/person},Fraction Latent,Fraction Radiant,Fraction Lost,Fraction Convected,End-Use SubCategory,Nominal Minimum Equipment Level {W},Nominal Maximum Equipment Level {W}
 ElectricEquipment Internal Gains Nominal, SPACE 109 ELECTRIC EQUIPMENT 3,MURB APPLIANCES AND LIGHTING,THERMAL ZONE 10,52.50,1.5,427.875,8.150,287.893,0.000,0.500,0.000,0.500,General,0.000,427.875
 ElectricEquipment Internal Gains Nominal, SPACE 112 ELECTRIC EQUIPMENT 3,MURB APPLIANCES AND LIGHTING,THERMAL ZONE 5,49.00,1.4,399.350,8.150,287.893,0.000,0.500,0.000,0.500,General,0.000,399.350
 ElectricEquipment Internal Gains Nominal, SPACE 103 ELECTRIC EQUIPMENT 3,MURB APPLIANCES AND LIGHTING,THERMAL ZONE 6,50.75,1.4,413.613,8.150,287.893,0.000,0.500,0.000,0.500,General,0.000,413.613
 ElectricEquipment Internal Gains Nominal, SPACE 105 ELECTRIC EQUIPMENT 3,MURB APPLIANCES AND LIGHTING,THERMAL ZONE 7,49.00,1.4,399.350,8.150,287.893,0.000,0.500,0.000,0.500,General,0.000,399.350
 ElectricEquipment Internal Gains Nominal, SPACE 106 ELECTRIC EQUIPMENT 3,MURB APPLIANCES AND LIGHTING,THERMAL ZONE 8,52.50,1.5,427.875,8.150,287.893,0.000,0.500,0.000,0.500,General,0.000,427.875
 ElectricEquipment Internal Gains Nominal, SPACE 107 ELECTRIC EQUIPMENT 3,MURB APPLIANCES AND LIGHTING,THERMAL ZONE 3,50.75,1.4,413.613,8.150,287.893,0.000,0.500,0.000,0.500,General,0.000,413.613
 ElectricEquipment Internal Gains Nominal, SPACE 108 ELECTRIC EQUIPMENT 3,MURB APPLIANCES AND LIGHTING,THERMAL ZONE 9,52.50,1.5,427.875,8.150,287.893,0.000,0.500,0.000,0.500,General,0.000,427.875
 ElectricEquipment Internal Gains Nominal, SPACE 110 ELECTRIC EQUIPMENT 3,MURB APPLIANCES AND LIGHTING,THERMAL ZONE 11,50.75,1.4,413.613,8.150,287.893,0.000,0.500,0.000,0.500,General,0.000,413.613
 ElectricEquipment Internal Gains Nominal, SPACE 111 ELECTRIC EQUIPMENT 3,MURB APPLIANCES AND LIGHTING,THERMAL ZONE 12,52.50,1.5,427.875,8.150,287.893,0.000,0.500,0.000,0.500,General,0.000,427.875
 ElectricEquipment Internal Gains Nominal, SPACE 120 ELECTRIC EQUIPMENT 3,MURB APPLIANCES AND LIGHTING,THERMAL ZONE 13,52.50,1.5,427.875,8.150,287.893,0.000,0.500,0.000,0.500,General,0.000,427.875
 ElectricEquipment Internal Gains Nominal, SPACE 113 ELECTRIC EQUIPMENT 3,MURB APPLIANCES AND LIGHTING,THERMAL ZONE 14,44.00,1.2,358.600,8.150,287.893,0.000,0.500,0.000,0.500,General,0.000,358.600
 ElectricEquipment Internal Gains Nominal, SPACE 114 ELECTRIC EQUIPMENT 3,MURB APPLIANCES AND LIGHTING,THERMAL ZONE 15,52.50,1.5,427.875,8.150,287.893,0.000,0.500,0.000,0.500,General,0.000,427.875
 ElectricEquipment Internal Gains Nominal, SPACE 115 ELECTRIC EQUIPMENT 3,MURB APPLIANCES AND LIGHTING,THERMAL ZONE 16,50.75,1.4,413.613,8.150,287.893,0.000,0.500,0.000,0.500,General,0.000,413.613
 ElectricEquipment Internal Gains Nominal, SPACE 117 ELECTRIC EQUIPMENT 3,MURB APPLIANCES AND LIGHTING,THERMAL ZONE 18,49.00,1.4,399.350,8.150,287.893,0.000,0.500,0.000,0.500,General,0.000,399.350
 ElectricEquipment Internal Gains Nominal, SPACE 118 ELECTRIC EQUIPMENT 3,MURB APPLIANCES AND LIGHTING,THERMAL ZONE 19,52.50,1.5,427.875,8.150,287.893,0.000,0.500,0.000,0.500,General,0.000,427.875
 ElectricEquipment Internal Gains Nominal, SPACE 119 ELECTRIC EQUIPMENT 3,MURB APPLIANCES AND LIGHTING,THERMAL ZONE 20,50.75,1.4,413.613,8.150,287.893,0.000,0.500,0.000,0.500,General,0.000,413.613
 ElectricEquipment Internal Gains Nominal, SPACE 122 ELECTRIC EQUIPMENT 3,MURB APPLIANCES AND LIGHTING,THERMAL ZONE 22,50.75,1.4,413.613,8.150,287.893,0.000,0.500,0.000,0.500,General,0.000,413.613
 ElectricEquipment Internal Gains Nominal, SPACE 123 ELECTRIC EQUIPMENT 3,MURB APPLIANCES AND LIGHTING,THERMAL ZONE 23,52.50,1.5,427.875,8.150,287.893,0.000,0.500,0.000,0.500,General,0.000,427.875
 ElectricEquipment Internal Gains Nominal, SPACE 1 ELECTRIC EQUIPMENT 2,MURB APPLIANCES AND LIGHTING,THERMAL ZONE 24,52.50,1.5,427.875,8.150,287.893,0.000,0.500,0.000,0.500,General,0.000,427.875
! <Shadowing/Sun Position Calculations Annual Simulations>, Shading Calculation Method, Shading Calculation Update Frequency Method, Shading Calculation Update Frequency {days}, Maximum Figures in Shadow Overlap Calculations {}, Polygon Clipping Algorithm, Pixel Counting Resolution, Sky Diffuse Modeling Algorithm, Output External Shading Calculation Results, Disable Self-Shading Within Shading Zone Groups, Disable Self-Shading From Shading Zone Groups to Other Zones
Shadowing/Sun Position Calculations Annual Simulations,PolygonClipping,Periodic,7,15000,SutherlandHodgman,512,SimpleSkyDiffuseModeling,No,No,No
! <Water Heater Information>,Type,Name,Volume {m3},Maximum Capacity {W},Standard Rated Recovery Efficiency, Standard Rated Energy Factor
! <ZoneInfiltration Airflow Stats Nominal>,Name,Schedule Name,Zone Name, Zone Floor Area {m2}, # Zone Occupants,Design Volume Flow Rate {m3/s},Volume Flow Rate/Floor Area {m3/s-m2},Volume Flow Rate/Exterior Surface Area {m3/s-m2},ACH - Air Changes per Hour,Equation A - Constant Term Coefficient {},Equation B - Temperature Term Coefficient {1/C},Equation C - Velocity Term Coefficient {s/m}, Equation D - Velocity Squared Term Coefficient {s2/m2}
 ZoneInfiltration Airflow Stats Nominal, SPACE 104 HVAC OFF INFILTRATION,INFILTRATION HVAC OFF SCHEDULE,THERMAL ZONE 1,44.00,0.0,2.519E-003,5.726E-005,2.066E-004,6.763E-002,0.107,1.199E-002,0.000,1.348E-002
 ZoneInfiltration Airflow Stats Nominal, SPACE 104 HVAC ON INFILTRATION,INFILTRATION HVAC ON SCHEDULE,THERMAL ZONE 1,44.00,0.0,2.519E-003,5.726E-005,2.066E-004,6.763E-002,0.107,1.199E-002,0.000,1.348E-002
 ZoneInfiltration Airflow Stats Nominal, SPACE 109 HVAC OFF INFILTRATION,INFILTRATION HVAC OFF SCHEDULE,THERMAL ZONE 10,52.50,1.5,9.133E-003,1.740E-004,2.066E-004,0.205,0.107,1.199E-002,0.000,1.348E-002
 ZoneInfiltration Airflow Stats Nominal, SPACE 109 HVAC ON INFILTRATION,INFILTRATION HVAC ON SCHEDULE,THERMAL ZONE 10,52.50,1.5,9.133E-003,1.740E-004,2.066E-004,0.205,0.107,1.199E-002,0.000,1.348E-002
 ZoneInfiltration Airflow Stats Nominal, SPACE 110 HVAC OFF INFILTRATION,INFILTRATION HVAC OFF SCHEDULE,THERMAL ZONE 11,50.75,1.4,1.795E-002,3.537E-004,2.066E-004,0.418,0.107,1.199E-002,0.000,1.348E-002
 ZoneInfiltration Airflow Stats Nominal, SPACE 110 HVAC ON INFILTRATION,INFILTRATION HVAC ON SCHEDULE,THERMAL ZONE 11,50.75,1.4,1.795E-002,3.537E-004,2.066E-004,0.418,0.107,1.199E-002,0.000,1.348E-002
 ZoneInfiltration Airflow Stats Nominal, SPACE 111 HVAC OFF INFILTRATION,INFILTRATION HVAC OFF SCHEDULE,THERMAL ZONE 12,52.50,1.5,1.827E-002,3.479E-004,2.066E-004,0.411,0.107,1.199E-002,0.000,1.348E-002
 ZoneInfiltration Airflow Stats Nominal, SPACE 111 HVAC ON INFILTRATION,INFILTRATION HVAC ON SCHEDULE,THERMAL ZONE 12,52.50,1.5,1.827E-002,3.479E-004,2.066E-004,0.411,0.107,1.199E-002,0.000,1.348E-002
 ZoneInfiltration Airflow Stats Nominal, SPACE 120 HVAC OFF INFILTRATION,INFILTRATION HVAC OFF SCHEDULE,THERMAL ZONE 13,52.50,1.5,2.911E-002,5.546E-004,2.066E-004,0.655,0.107,1.199E-002,0.000,1.348E-002
 ZoneInfiltration Airflow Stats Nominal, SPACE 120 HVAC ON INFILTRATION,INFILTRATION HVAC ON SCHEDULE,THERMAL ZONE 13,52.50,1.5,2.911E-002,5.546E-004,2.066E-004,0.655,0.107,1.199E-002,0.000,1.348E-002
 ZoneInfiltration Airflow Stats Nominal, SPACE 113 HVAC OFF INFILTRATION,INFILTRATION HVAC OFF SCHEDULE,THERMAL ZONE 14,44.00,1.2,3.023E-002,6.871E-004,2.066E-004,0.812,0.107,1.199E-002,0.000,1.348E-002
 ZoneInfiltration Airflow Stats Nominal, SPACE 113 HVAC ON INFILTRATION,INFILTRATION HVAC ON SCHEDULE,THERMAL ZONE 14,44.00,1.2,3.023E-002,6.871E-004,2.066E-004,0.812,0.107,1.199E-002,0.000,1.348E-002
 ZoneInfiltration Airflow Stats Nominal, SPACE 114 HVAC OFF INFILTRATION,INFILTRATION HVAC OFF SCHEDULE,THERMAL ZONE 15,52.50,1.5,1.827E-002,3.479E-004,2.066E-004,0.411,0.107,1.199E-002,0.000,1.348E-002
 ZoneInfiltration Airflow Stats Nominal, SPACE 114 HVAC ON INFILTRATION,INFILTRATION HVAC ON SCHEDULE,THERMAL ZONE 15,52.50,1.5,1.827E-002,3.479E-004,2.066E-004,0.411,0.107,1.199E-002,0.000,1.348E-002
 ZoneInfiltration Airflow Stats Nominal, SPACE 115 HVAC OFF INFILTRATION,INFILTRATION HVAC OFF SCHEDULE,THERMAL ZONE 16,50.75,1.4,1.795E-002,3.537E-004,2.066E-004,0.418,0.107,1.199E-002,0.000,1.348E-002
 ZoneInfiltration Airflow Stats Nominal, SPACE 115 HVAC ON INFILTRATION,INFILTRATION HVAC ON SCHEDULE,THERMAL ZONE 16,50.75,1.4,1.795E-002,3.537E-004,2.066E-004,0.418,0.107,1.199E-002,0.000,1.348E-002
 ZoneInfiltration Airflow Stats Nominal, SPACE 116 HVAC OFF INFILTRATION,INFILTRATION HVAC OFF SCHEDULE,THERMAL ZONE 17,52.50,0.0,1.827E-002,3.479E-004,2.066E-004,0.411,0.107,1.199E-002,0.000,1.348E-002
 ZoneInfiltration Airflow Stats Nominal, SPACE 116 HVAC ON INFILTRATION,INFILTRATION HVAC ON SCHEDULE,THERMAL ZONE 17,52.50,0.0,1.827E-002,3.479E-004,2.066E-004,0.411,0.107,1.199E-002,0.000,1.348E-002
 ZoneInfiltration Airflow Stats Nominal, SPACE 117 HVAC OFF INFILTRATION,INFILTRATION HVAC OFF SCHEDULE,THERMAL ZONE 18,49.00,1.4,2.776E-002,5.666E-004,2.066E-004,0.669,0.107,1.199E-002,0.000,1.348E-002
 ZoneInfiltration Airflow Stats Nominal, SPACE 117 HVAC ON INFILTRATION,INFILTRATION HVAC ON SCHEDULE,THERMAL ZONE 18,49.00,1.4,2.776E-002,5.666E-004,2.066E-004,0.669,0.107,1.199E-002,0.000,1.348E-002
 ZoneInfiltration Airflow Stats Nominal, SPACE 118 HVAC OFF INFILTRATION,INFILTRATION HVAC OFF SCHEDULE,THERMAL ZONE 19,52.50,1.5,2.911E-002,5.546E-004,2.066E-004,0.655,0.107,1.199E-002,0.000,1.348E-002
 ZoneInfiltration Airflow Stats Nominal, SPACE 118 HVAC ON INFILTRATION,INFILTRATION HVAC ON SCHEDULE,THERMAL ZONE 19,52.50,1.5,2.911E-002,5.546E-004,2.066E-004,0.655,0.107,1.199E-002,0.000,1.348E-002
 ZoneInfiltration Airflow Stats Nominal, SPACE 101 HVAC OFF INFILTRATION,INFILTRATION HVAC OFF SCHEDULE,THERMAL ZONE 2,299.50,0.0,0.110,3.665E-004,2.066E-004,0.433,0.107,1.199E-002,0.000,1.348E-002
 ZoneInfiltration Airflow Stats Nominal, SPACE 101 HVAC ON INFILTRATION,INFILTRATION HVAC ON SCHEDULE,THERMAL ZONE 2,299.50,0.0,0.110,3.665E-004,2.066E-004,0.433,0.107,1.199E-002,0.000,1.348E-002
 ZoneInfiltration Airflow Stats Nominal, SPACE 119 HVAC OFF INFILTRATION,INFILTRATION HVAC OFF SCHEDULE,THERMAL ZONE 20,50.75,1.4,2.844E-002,5.603E-004,2.066E-004,0.662,0.107,1.199E-002,0.000,1.348E-002
 ZoneInfiltration Airflow Stats Nominal, SPACE 119 HVAC ON INFILTRATION,INFILTRATION HVAC ON SCHEDULE,THERMAL ZONE 20,50.75,1.4,2.844E-002,5.603E-004,2.066E-004,0.662,0.107,1.199E-002,0.000,1.348E-002
 ZoneInfiltration Airflow Stats Nominal, SPACE 121 HVAC OFF INFILTRATION,INFILTRATION HVAC OFF SCHEDULE,THERMAL ZONE 21,44.00,0.0,3.932E-002,8.937E-004,2.066E-004,1.056,0.107,1.199E-002,0.000,1.348E-002
 ZoneInfiltration Airflow Stats Nominal, SPACE 121 HVAC ON INFILTRATION,INFILTRATION HVAC ON SCHEDULE,THERMAL ZONE 21,44.00,0.0,3.932E-002,8.937E-004,2.066E-004,1.056,0.107,1.199E-002,0.000,1.348E-002
 ZoneInfiltration Airflow Stats Nominal, SPACE 122 HVAC OFF INFILTRATION,INFILTRATION HVAC OFF SCHEDULE,THERMAL ZONE 22,50.75,1.4,2.844E-002,5.603E-004,2.066E-004,0.662,0.107,1.199E-002,0.000,1.348E-002
 ZoneInfiltration Airflow Stats Nominal, SPACE 122 HVAC ON INFILTRATION,INFILTRATION HVAC ON SCHEDULE,THERMAL ZONE 22,50.75,1.4,2.844E-002,5.603E-004,2.066E-004,0.662,0.107,1.199E-002,0.000,1.348E-002
 ZoneInfiltration Airflow Stats Nominal, SPACE 123 HVAC OFF INFILTRATION,INFILTRATION HVAC OFF SCHEDULE,THERMAL ZONE 23,52.50,1.5,2.911E-002,5.546E-004,2.066E-004,0.655,0.107,1.199E-002,0.000,1.348E-002
 ZoneInfiltration Airflow Stats Nominal, SPACE 123 HVAC ON INFILTRATION,INFILTRATION HVAC ON SCHEDULE,THERMAL ZONE 23,52.50,1.5,2.911E-002,5.546E-004,2.066E-004,0.655,0.107,1.199E-002,0.000,1.348E-002
 ZoneInfiltration Airflow Stats Nominal, SPACE 1 HVAC OFF INFILTRATION,INFILTRATION HVAC OFF SCHEDULE,THERMAL ZONE 24,52.50,1.5,2.911E-002,5.546E-004,2.066E-004,0.655,0.107,1.199E-002,0.000,1.348E-002
 ZoneInfiltration Airflow Stats Nominal, SPACE 1 HVAC ON INFILTRATION,INFILTRATION HVAC ON SCHEDULE,THERMAL ZONE 24,52.50,1.5,2.911E-002,5.546E-004,2.066E-004,0.655,0.107,1.199E-002,0.000,1.348E-002
 ZoneInfiltration Airflow Stats Nominal, SPACE 107 HVAC OFF INFILTRATION,INFILTRATION HVAC OFF SCHEDULE,THERMAL ZONE 3,50.75,1.4,4.566E-003,8.998E-005,2.066E-004,0.106,0.107,1.199E-002,0.000,1.348E-002
 ZoneInfiltration Airflow Stats Nominal, SPACE 107 HVAC ON INFILTRATION,INFILTRATION HVAC ON SCHEDULE,THERMAL ZONE 3,50.75,1.4,4.566E-003,8.998E-005,2.066E-004,0.106,0.107,1.199E-002,0.000,1.348E-002
 ZoneInfiltration Airflow Stats Nominal, SPACE 112 HVAC OFF INFILTRATION,INFILTRATION HVAC OFF SCHEDULE,THERMAL ZONE 5,49.00,1.4,1.764E-002,3.599E-004,2.066E-004,0.425,0.107,1.199E-002,0.000,1.348E-002
 ZoneInfiltration Airflow Stats Nominal, SPACE 112 HVAC ON INFILTRATION,INFILTRATION HVAC ON SCHEDULE,THERMAL ZONE 5,49.00,1.4,1.764E-002,3.599E-004,2.066E-004,0.425,0.107,1.199E-002,0.000,1.348E-002
 ZoneInfiltration Airflow Stats Nominal, SPACE 103 HVAC OFF INFILTRATION,INFILTRATION HVAC OFF SCHEDULE,THERMAL ZONE 6,50.75,1.4,8.975E-003,1.769E-004,2.066E-004,0.209,0.107,1.199E-002,0.000,1.348E-002
 ZoneInfiltration Airflow Stats Nominal, SPACE 103 HVAC ON INFILTRATION,INFILTRATION HVAC ON SCHEDULE,THERMAL ZONE 6,50.75,1.4,8.975E-003,1.769E-004,2.066E-004,0.209,0.107,1.199E-002,0.000,1.348E-002
 ZoneInfiltration Airflow Stats Nominal, SPACE 105 HVAC OFF INFILTRATION,INFILTRATION HVAC OFF SCHEDULE,THERMAL ZONE 7,49.00,1.4,8.818E-003,1.800E-004,2.066E-004,0.213,0.107,1.199E-002,0.000,1.348E-002
 ZoneInfiltration Airflow Stats Nominal, SPACE 105 HVAC ON INFILTRATION,INFILTRATION HVAC ON SCHEDULE,THERMAL ZONE 7,49.00,1.4,8.818E-003,1.800E-004,2.066E-004,0.213,0.107,1.199E-002,0.000,1.348E-002
 ZoneInfiltration Airflow Stats Nominal, SPACE 106 HVAC OFF INFILTRATION,INFILTRATION HVAC OFF SCHEDULE,THERMAL ZONE 8,52.50,1.5,4.724E-003,8.998E-005,2.066E-004,0.106,0.107,1.199E-002,0.000,1.348E-002
 ZoneInfiltration Airflow Stats Nominal, SPACE 106 HVAC ON INFILTRATION,INFILTRATION HVAC ON SCHEDULE,THERMAL ZONE 8,52.50,1.5,4.724E-003,8.998E-005,2.066E-004,0.106,0.107,1.199E-002,0.000,1.348E-002
 ZoneInfiltration Airflow Stats Nominal, SPACE 108 HVAC OFF INFILTRATION,INFILTRATION HVAC OFF SCHEDULE,THERMAL ZONE 9,52.50,1.5,9.133E-003,1.740E-004,2.066E-004,0.205,0.107,1.199E-002,0.000,1.348E-002
 ZoneInfiltration Airflow Stats Nominal, SPACE 108 HVAC ON INFILTRATION,INFILTRATION HVAC ON SCHEDULE,THERMAL ZONE 9,52.50,1.5,9.133E-003,1.740E-004,2.066E-004,0.205,0.107,1.199E-002,0.000,1.348E-002
! <AirFlow Model>, Simple
 AirFlow Model, Simple
! <RoomAir Model>, Zone Name, Mixing/Mundt/UCSDDV/UCSDCV/UCSDUFI/UCSDUFE/User Defined
RoomAir Model,THERMAL ZONE 1,Mixing/Well-Stirred
RoomAir Model,THERMAL ZONE 10,Mixing/Well-Stirred
RoomAir Model,THERMAL ZONE 11,Mixing/Well-Stirred
RoomAir Model,THERMAL ZONE 12,Mixing/Well-Stirred
RoomAir Model,THERMAL ZONE 13,Mixing/Well-Stirred
RoomAir Model,THERMAL ZONE 14,Mixing/Well-Stirred
RoomAir Model,THERMAL ZONE 15,Mixing/Well-Stirred
RoomAir Model,THERMAL ZONE 16,Mixing/Well-Stirred
RoomAir Model,THERMAL ZONE 17,Mixing/Well-Stirred
RoomAir Model,THERMAL ZONE 18,Mixing/Well-Stirred
RoomAir Model,THERMAL ZONE 19,Mixing/Well-Stirred
RoomAir Model,THERMAL ZONE 2,Mixing/Well-Stirred
RoomAir Model,THERMAL ZONE 20,Mixing/Well-Stirred
RoomAir Model,THERMAL ZONE 21,Mixing/Well-Stirred
RoomAir Model,THERMAL ZONE 22,Mixing/Well-Stirred
RoomAir Model,THERMAL ZONE 23,Mixing/Well-Stirred
RoomAir Model,THERMAL ZONE 24,Mixing/Well-Stirred
RoomAir Model,THERMAL ZONE 3,Mixing/Well-Stirred
RoomAir Model,THERMAL ZONE 5,Mixing/Well-Stirred
RoomAir Model,THERMAL ZONE 6,Mixing/Well-Stirred
RoomAir Model,THERMAL ZONE 7,Mixing/Well-Stirred
RoomAir Model,THERMAL ZONE 8,Mixing/Well-Stirred
RoomAir Model,THERMAL ZONE 9,Mixing/Well-Stirred
! <AirflowNetwork Model:Control>, No Multizone or Distribution/Multizone with Distribution/Multizone without Distribution/Multizone with Distribution only during Fan Operation
AirflowNetwork Model:Control,NoMultizoneOrDistribution
! <Zone Volume Capacitance Multiplier>, Sensible Heat Capacity Multiplier, Moisture Capacity Multiplier, Carbon Dioxide Capacity Multiplier, Generic Contaminant Capacity Multiplier
Zone Volume Capacitance Multiplier,   1.000 ,   1.000,   1.000,   1.000
! <Load Timesteps in Zone Design Calculation Averaging Window>, Value
 Load Timesteps in Zone Design Calculation Averaging Window,    6
! <Heating Sizing Factor Information>, Sizing Factor ID, Value
 Heating Sizing Factor Information, Global,   1.2500    
 Heating Sizing Factor Information, Zone THERMAL ZONE 1,   1.2500    
 Heating Sizing Factor Information, Zone THERMAL ZONE 10,   1.2500    
 Heating Sizing Factor Information, Zone THERMAL ZONE 11,   1.2500    
 Heating Sizing Factor Information, Zone THERMAL ZONE 12,   1.2500    
 Heating Sizing Factor Information, Zone THERMAL ZONE 13,   1.2500    
 Heating Sizing Factor Information, Zone THERMAL ZONE 14,   1.2500    
 Heating Sizing Factor Information, Zone THERMAL ZONE 15,   1.2500    
 Heating Sizing Factor Information, Zone THERMAL ZONE 16,   1.2500    
 Heating Sizing Factor Information, Zone THERMAL ZONE 17,   1.2500    
 Heating Sizing Factor Information, Zone THERMAL ZONE 18,   1.2500    
 Heating Sizing Factor Information, Zone THERMAL ZONE 19,   1.2500    
 Heating Sizing Factor Information, Zone THERMAL ZONE 2,   1.2500    
 Heating Sizing Factor Information, Zone THERMAL ZONE 20,   1.2500    
 Heating Sizing Factor Information, Zone THERMAL ZONE 21,   1.2500    
 Heating Sizing Factor Information, Zone THERMAL ZONE 22,   1.2500    
 Heating Sizing Factor Information, Zone THERMAL ZONE 23,   1.2500    
 Heating Sizing Factor Information, Zone THERMAL ZONE 24,   1.2500    
 Heating Sizing Factor Information, Zone THERMAL ZONE 3,   1.2500    
 Heating Sizing Factor Information, Zone THERMAL ZONE 5,   1.2500    
 Heating Sizing Factor Information, Zone THERMAL ZONE 6,   1.2500    
 Heating Sizing Factor Information, Zone THERMAL ZONE 7,   1.2500    
 Heating Sizing Factor Information, Zone THERMAL ZONE 8,   1.2500    
 Heating Sizing Factor Information, Zone THERMAL ZONE 9,   1.2500    
! <Cooling Sizing Factor Information>, Sizing Factor ID, Value
 Cooling Sizing Factor Information, Global,   1.1500    
 Cooling Sizing Factor Information, Zone THERMAL ZONE 1,   1.1500    
 Cooling Sizing Factor Information, Zone THERMAL ZONE 10,   1.1500    
 Cooling Sizing Factor Information, Zone THERMAL ZONE 11,   1.1500    
 Cooling Sizing Factor Information, Zone THERMAL ZONE 12,   1.1500    
 Cooling Sizing Factor Information, Zone THERMAL ZONE 13,   1.1500    
 Cooling Sizing Factor Information, Zone THERMAL ZONE 14,   1.1500    
 Cooling Sizing Factor Information, Zone THERMAL ZONE 15,   1.1500    
 Cooling Sizing Factor Information, Zone THERMAL ZONE 16,   1.1500    
 Cooling Sizing Factor Information, Zone THERMAL ZONE 17,   1.1500    
 Cooling Sizing Factor Information, Zone THERMAL ZONE 18,   1.1500    
 Cooling Sizing Factor Information, Zone THERMAL ZONE 19,   1.1500    
 Cooling Sizing Factor Information, Zone THERMAL ZONE 2,   1.1500    
 Cooling Sizing Factor Information, Zone THERMAL ZONE 20,   1.1500    
 Cooling Sizing Factor Information, Zone THERMAL ZONE 21,   1.1500    
 Cooling Sizing Factor Information, Zone THERMAL ZONE 22,   1.1500    
 Cooling Sizing Factor Information, Zone THERMAL ZONE 23,   1.1500    
 Cooling Sizing Factor Information, Zone THERMAL ZONE 24,   1.1500    
 Cooling Sizing Factor Information, Zone THERMAL ZONE 3,   1.1500    
 Cooling Sizing Factor Information, Zone THERMAL ZONE 5,   1.1500    
 Cooling Sizing Factor Information, Zone THERMAL ZONE 6,   1.1500    
 Cooling Sizing Factor Information, Zone THERMAL ZONE 7,   1.1500    
 Cooling Sizing Factor Information, Zone THERMAL ZONE 8,   1.1500    
 Cooling Sizing Factor Information, Zone THERMAL ZONE 9,   1.1500    
! <Zone Sizing Information>, Zone Name, Load Type, Calc Des Load {W}, User Des Load {W}, Calc Des Air Flow Rate {m3/s}, User Des Air Flow Rate {m3/s}, Design Day Name, Date/Time of Peak, Temperature at Peak {C}, Humidity Ratio at Peak {kgWater/kgDryAir}, Floor Area {m2}, # Occupants, Calc Outdoor Air Flow Rate {m3/s}, Calc DOAS Heat Addition Rate {W}
 Zone Sizing Information, THERMAL ZONE 1, Cooling, 528.33702, 607.58758, 4.31680E-002, 4.96432E-002, MONTREAL INT'L ANN CLG .4% CONDNS DB=>MWB, 7/21 16:50:00, 28.82200, 1.35607E-002, 44.00000, 0.00000, 0.00000, 0.00000
 Zone Sizing Information, THERMAL ZONE 1, Heating, 1845.14837, 2306.43546, 7.88741E-002, 9.85926E-002, MONTREAL INT'L ANN HTG 99.6% CONDNS DB, 1/21 08:00:00, -23.70000, 4.44277E-004, 44.00000, 0.00000, 0.00000, 0.00000
 Zone Sizing Information, THERMAL ZONE 10, Cooling, 1153.68796, 1326.74116, 9.42695E-002, 0.10841, MONTREAL INT'L ANN CLG .4% CONDNS DB=>MWB, 7/21 09:50:00, 26.20250, 1.35560E-002, 52.50000, 1.48623, 4.45868E-003, 0.00000
 Zone Sizing Information, THERMAL ZONE 10, Heating, 3078.11409, 3847.64261, 0.13171, 0.16463, MONTREAL INT'L ANN HTG 99.6% CONDNS DB, 1/21 08:00:00, -23.70000, 4.44277E-004, 52.50000, 1.48623, 4.45868E-003, 0.00000
 Zone Sizing Information, THERMAL ZONE 11, Cooling, 29910.72528, 34397.33407, 2.44421, 2.81084, MONTREAL INT'L ANN CLG .4% CONDNS DB=>MWB, 7/21 16:40:00, 28.94600, 1.35609E-002, 50.75000, 1.43669, 4.31006E-002, 0.00000
 Zone Sizing Information, THERMAL ZONE 11, Heating, 59200.86962, 74001.08702, 2.53615, 3.17019, MONTREAL INT'L ANN HTG 99.6% CONDNS DB, 1/21 08:00:00, -23.70000, 4.44277E-004, 50.75000, 1.43669, 4.31006E-002, 0.00000
 Zone Sizing Information, THERMAL ZONE 12, Cooling, 29688.87656, 34142.20805, 2.42609, 2.79001, MONTREAL INT'L ANN CLG .4% CONDNS DB=>MWB, 7/21 15:20:00, 29.81400, 1.35624E-002, 52.50000, 1.48623, 4.45868E-002, 0.00000
 Zone Sizing Information, THERMAL ZONE 12, Heating, 61863.60182, 77329.50228, 2.65026, 3.31283, MONTREAL INT'L ANN HTG 99.6% CONDNS DB, 1/21 08:00:00, -23.70000, 4.44277E-004, 52.50000, 1.48623, 4.45868E-002, 0.00000
 Zone Sizing Information, THERMAL ZONE 13, Cooling, 3671.40845, 4222.11972, 0.30005, 0.34505, MONTREAL INT'L ANN CLG .4% CONDNS DB=>MWB, 7/21 15:10:00, 29.90700, 1.35626E-002, 52.50000, 1.48623, 4.45868E-003, 0.00000
 Zone Sizing Information, THERMAL ZONE 13, Heating, 7708.19418, 9635.24273, 0.33022, 0.41278, MONTREAL INT'L ANN HTG 99.6% CONDNS DB, 1/21 08:00:00, -23.70000, 4.44277E-004, 52.50000, 1.48623, 4.45868E-003, 0.00000
 Zone Sizing Information, THERMAL ZONE 14, Cooling, 70822.20651, 81445.53749, 5.78763, 6.65578, MONTREAL INT'L ANN CLG .4% CONDNS DB=>MWB, 7/21 17:10:00, 28.54300, 1.35602E-002, 44.00000, 1.24560, 3.73680E-002, 0.00000
 Zone Sizing Information, THERMAL ZONE 14, Heating, 93786.79115, 117233.48893, 4.01930, 5.02412, MONTREAL INT'L ANN HTG 99.6% CONDNS DB, 1/21 08:00:00, -23.70000, 4.44277E-004, 44.00000, 1.24560, 3.73680E-002, 0.00000
 Zone Sizing Information, THERMAL ZONE 15, Cooling, 30959.03034, 35602.88490, 2.52988, 2.90936, MONTREAL INT'L ANN CLG .4% CONDNS DB=>MWB, 7/21 15:10:00, 29.90700, 1.35626E-002, 52.50000, 1.48623, 4.45868E-002, 0.00000
 Zone Sizing Information, THERMAL ZONE 15, Heating, 60360.91927, 75451.14909, 2.58580, 3.23226, MONTREAL INT'L ANN HTG 99.6% CONDNS DB, 1/21 08:00:00, -23.70000, 4.44277E-004, 52.50000, 1.48623, 4.45868E-002, 0.00000
 Zone Sizing Information, THERMAL ZONE 16, Cooling, 30184.29964, 34711.94458, 2.46657, 2.83655, MONTREAL INT'L ANN CLG .4% CONDNS DB=>MWB, 7/21 16:40:00, 28.94600, 1.35609E-002, 50.75000, 1.43669, 4.31006E-002, 0.00000
 Zone Sizing Information, THERMAL ZONE 16, Heating, 60705.30786, 75881.63482, 2.60068, 3.25085, MONTREAL INT'L ANN HTG 99.6% CONDNS DB, 1/21 08:00:00, -23.70000, 4.44277E-004, 50.75000, 1.43669, 4.31006E-002, 0.00000
 Zone Sizing Information, THERMAL ZONE 17, Cooling, 29705.75191, 34161.61469, 2.42740, 2.79151, MONTREAL INT'L ANN CLG .4% CONDNS DB=>MWB, 7/21 16:50:00, 28.82200, 1.35607E-002, 52.50000, 0.00000, 0.00000, 0.00000
 Zone Sizing Information, THERMAL ZONE 17, Heating, 62903.43964, 78629.29955, 2.69476, 3.36845, MONTREAL INT'L ANN HTG 99.6% CONDNS DB, 1/21 08:00:00, -23.70000, 4.44277E-004, 52.50000, 0.00000, 0.00000, 0.00000
 Zone Sizing Information, THERMAL ZONE 18, Cooling, 3579.83813, 4116.81385, 0.29256, 0.33645, MONTREAL INT'L ANN CLG .4% CONDNS DB=>MWB, 7/21 15:10:00, 29.90700, 1.35626E-002, 49.00000, 1.38715, 4.16144E-003, 0.00000
 Zone Sizing Information, THERMAL ZONE 18, Heating, 7385.17507, 9231.46884, 0.31639, 0.39549, MONTREAL INT'L ANN HTG 99.6% CONDNS DB, 1/21 08:00:00, -23.70000, 4.44277E-004, 49.00000, 1.38715, 4.16144E-003, 0.00000
 Zone Sizing Information, THERMAL ZONE 19, Cooling, 3651.72373, 4199.48229, 0.29844, 0.34320, MONTREAL INT'L ANN CLG .4% CONDNS DB=>MWB, 7/21 15:10:00, 29.90700, 1.35626E-002, 52.50000, 1.48623, 4.45868E-003, 0.00000
 Zone Sizing Information, THERMAL ZONE 19, Heating, 7446.68680, 9308.35850, 0.31901, 0.39876, MONTREAL INT'L ANN HTG 99.6% CONDNS DB, 1/21 08:00:00, -23.70000, 4.44277E-004, 52.50000, 1.48623, 4.45868E-003, 0.00000
 Zone Sizing Information, THERMAL ZONE 2, Cooling, 7563.59773, 8698.13739, 0.61804, 0.71075, MONTREAL INT'L ANN CLG .4% CONDNS DB=>MWB, 7/21 16:20:00, 29.19400, 1.35613E-002, 299.50000, 0.00000, 0.00000, 0.00000
 Zone Sizing Information, THERMAL ZONE 2, Heating, 23039.58144, 28799.47680, 0.98616, 1.23270, MONTREAL INT'L ANN HTG 99.6% CONDNS DB, 1/21 08:00:00, -23.70000, 4.44277E-004, 299.50000, 0.00000, 0.00000, 0.00000
 Zone Sizing Information, THERMAL ZONE 20, Cooling, 3544.59600, 4076.28540, 0.28968, 0.33314, MONTREAL INT'L ANN CLG .4% CONDNS DB=>MWB, 7/21 16:00:00, 29.44200, 1.35618E-002, 50.75000, 1.43669, 4.31006E-003, 0.00000
 Zone Sizing Information, THERMAL ZONE 20, Heating, 7545.68458, 9432.10573, 0.32326, 0.40408, MONTREAL INT'L ANN HTG 99.6% CONDNS DB, 1/21 08:00:00, -23.70000, 4.44277E-004, 50.75000, 1.43669, 4.31006E-003, 0.00000
 Zone Sizing Information, THERMAL ZONE 21, Cooling, 7516.52810, 8644.00731, 0.61430, 0.70644, MONTREAL INT'L ANN CLG .4% CONDNS DB=>MWB, 7/21 17:00:00, 28.69800, 1.35605E-002, 44.00000, 0.00000, 0.00000, 0.00000
 Zone Sizing Information, THERMAL ZONE 21, Heating, 10639.63498, 13299.54372, 0.45589, 0.56986, MONTREAL INT'L ANN HTG 99.6% CONDNS DB, 1/21 08:00:00, -23.70000, 4.44277E-004, 44.00000, 0.00000, 0.00000, 0.00000
 Zone Sizing Information, THERMAL ZONE 22, Cooling, 3503.12389, 4028.59247, 0.28629, 0.32924, MONTREAL INT'L ANN CLG .4% CONDNS DB=>MWB, 7/21 16:00:00, 29.44200, 1.35618E-002, 50.75000, 1.43669, 4.31006E-003, 0.00000
 Zone Sizing Information, THERMAL ZONE 22, Heating, 7283.76710, 9104.70888, 0.31203, 0.39004, MONTREAL INT'L ANN HTG 99.6% CONDNS DB, 1/21 08:00:00, -23.70000, 4.44277E-004, 50.75000, 1.43669, 4.31006E-003, 0.00000
 Zone Sizing Information, THERMAL ZONE 23, Cooling, 3617.06527, 4159.62506, 0.29561, 0.33995, MONTREAL INT'L ANN CLG .4% CONDNS DB=>MWB, 7/21 16:00:00, 29.44200, 1.35618E-002, 52.50000, 1.48623, 4.45868E-003, 0.00000
 Zone Sizing Information, THERMAL ZONE 23, Heating, 7706.92807, 9633.66009, 0.33017, 0.41271, MONTREAL INT'L ANN HTG 99.6% CONDNS DB, 1/21 08:00:00, -23.70000, 4.44277E-004, 52.50000, 1.48623, 4.45868E-003, 0.00000
 Zone Sizing Information, THERMAL ZONE 24, Cooling, 3042.28169, 3498.62394, 0.24860, 0.28590, MONTREAL INT'L ANN CLG .4% CONDNS DB=>MWB, 7/21 15:50:00, 29.53500, 1.35619E-002, 52.50000, 1.48623, 4.45868E-003, 0.00000
 Zone Sizing Information, THERMAL ZONE 24, Heating, 6592.17208, 8240.21510, 0.28239, 0.35299, MONTREAL INT'L ANN HTG 99.6% CONDNS DB, 1/21 08:00:00, -23.70000, 4.44277E-004, 52.50000, 1.48623, 4.45868E-003, 0.00000
 Zone Sizing Information, THERMAL ZONE 3, Cooling, 1203.70470, 1384.26041, 9.83534E-002, 0.11311, MONTREAL INT'L ANN CLG .4% CONDNS DB=>MWB, 7/21 17:30:00, 28.23300, 1.35596E-002, 50.75000, 1.43669, 4.31006E-003, 0.00000
 Zone Sizing Information, THERMAL ZONE 3, Heating, 1958.77348, 2448.46685, 8.36934E-002, 0.10462, MONTREAL INT'L ANN HTG 99.6% CONDNS DB, 1/21 08:00:00, -23.70000, 4.44277E-004, 50.75000, 1.43669, 4.31006E-003, 0.00000
 Zone Sizing Information, THERMAL ZONE 5, Cooling, 30265.83132, 34805.70601, 2.47324, 2.84423, MONTREAL INT'L ANN CLG .4% CONDNS DB=>MWB, 7/21 15:10:00, 29.90700, 1.35626E-002, 49.00000, 1.38715, 4.16144E-002, 0.00000
 Zone Sizing Information, THERMAL ZONE 5, Heating, 59571.62178, 74464.52722, 2.55216, 3.19020, MONTREAL INT'L ANN HTG 99.6% CONDNS DB, 1/21 08:00:00, -23.70000, 4.44277E-004, 49.00000, 1.38715, 4.16144E-002, 0.00000
 Zone Sizing Information, THERMAL ZONE 6, Cooling, 1301.39047, 1496.59904, 0.10634, 0.12229, MONTREAL INT'L ANN CLG .4% CONDNS DB=>MWB, 7/21 17:20:00, 28.38800, 1.35599E-002, 50.75000, 1.43669, 4.31006E-003, 0.00000
 Zone Sizing Information, THERMAL ZONE 6, Heating, 3048.46902, 3810.58628, 0.13045, 0.16306, MONTREAL INT'L ANN HTG 99.6% CONDNS DB, 1/21 08:00:00, -23.70000, 4.44277E-004, 50.75000, 1.43669, 4.31006E-003, 0.00000
 Zone Sizing Information, THERMAL ZONE 7, Cooling, 1085.48083, 1248.30295, 8.86963E-002, 0.10200, MONTREAL INT'L ANN CLG .4% CONDNS DB=>MWB, 7/21 09:50:00, 26.20250, 1.35560E-002, 49.00000, 1.38715, 4.16144E-003, 0.00000
 Zone Sizing Information, THERMAL ZONE 7, Heating, 2975.15530, 3718.94413, 0.12731, 0.15914, MONTREAL INT'L ANN HTG 99.6% CONDNS DB, 1/21 08:00:00, -23.70000, 4.44277E-004, 49.00000, 1.38715, 4.16144E-003, 0.00000
 Zone Sizing Information, THERMAL ZONE 8, Cooling, 1112.57518, 1279.46146, 9.09087E-002, 0.10454, MONTREAL INT'L ANN CLG .4% CONDNS DB=>MWB, 7/21 09:40:00, 25.93900, 1.35556E-002, 52.50000, 1.48623, 4.45868E-003, 0.00000
 Zone Sizing Information, THERMAL ZONE 8, Heating, 2003.66312, 2504.57891, 8.56069E-002, 0.10701, MONTREAL INT'L ANN HTG 99.6% CONDNS DB, 1/21 08:00:00, -23.70000, 4.44277E-004, 52.50000, 1.48623, 4.45868E-003, 0.00000
 Zone Sizing Information, THERMAL ZONE 9, Cooling, 1339.23911, 1540.12498, 0.10943, 0.12584, MONTREAL INT'L ANN CLG .4% CONDNS DB=>MWB, 7/21 17:20:00, 28.38800, 1.35599E-002, 52.50000, 1.48623, 4.45868E-003, 0.00000
 Zone Sizing Information, THERMAL ZONE 9, Heating, 3092.56798, 3865.70997, 0.13233, 0.16541, MONTREAL INT'L ANN HTG 99.6% CONDNS DB, 1/21 08:00:00, -23.70000, 4.44277E-004, 52.50000, 1.48623, 4.45868E-003, 0.00000
! <Component Sizing Information>, Component Type, Component Name, Input Field Description, Value
 Component Sizing Information, ZONEHVAC:BASEBOARD:CONVECTIVE:ELECTRIC, ELEC BASEBOARD, Design Size Heating Design Capacity [W], 2306.43546
 Component Sizing Information, ZoneHVAC:PackagedTerminalHeatPump, PTHP, Design Size Cooling Supply Air Flow Rate [m3/s], 9.85926E-002
 Component Sizing Information, ZoneHVAC:PackagedTerminalHeatPump, PTHP, Design Size Heating Supply Air Flow Rate [m3/s], 9.85926E-002
 Component Sizing Information, ZoneHVAC:PackagedTerminalHeatPump, PTHP, User-Specified Heating Supply Air Flow Rate [m3/s], 2.22045E-016
 Component Sizing Information, ZoneHVAC:PackagedTerminalHeatPump, PTHP, Design Size No Load Supply Air Flow Rate [m3/s], 9.85926E-002
 Component Sizing Information, ZoneHVAC:PackagedTerminalHeatPump, PTHP, Design Size Outdoor Air Flow Rate During Cooling Operation [m3/s], 0.00000
 Component Sizing Information, ZoneHVAC:PackagedTerminalHeatPump, PTHP, Design Size Outdoor Air Flow Rate During Heating Operation [m3/s], 0.00000
 Component Sizing Information, ZoneHVAC:PackagedTerminalHeatPump, PTHP, Design Size Outdoor Air Flow Rate When No Cooling or Heating is Needed [m3/s], 0.00000
 Component Sizing Information, ZoneHVAC:PackagedTerminalHeatPump, PTHP, Design Size Maximum Supply Air Temperature from Supplemental Heater [C], 40.00000
 Component Sizing Information, Coil:Cooling:DX:SingleSpeed, PTHP 1 SPD DX CLG COIL, Design Size Rated Air Flow Rate [m3/s], 9.85926E-002
 Component Sizing Information, Coil:Cooling:DX:SingleSpeed, PTHP 1 SPD DX CLG COIL, Design Size Gross Rated Total Cooling Capacity [W], 1632.05829
 Component Sizing Information, Coil:Cooling:DX:SingleSpeed, PTHP 1 SPD DX CLG COIL, Design Size Gross Rated Sensible Heat Ratio, 0.80066
! <DX Cooling Coil Standard Rating Information>, Component Type, Component Name, Standard Rating (Net) Cooling Capacity {W}, Standard Rated Net COP {W/W}, EER {Btu/W-h}, SEER User {Btu/W-h}, SEER Standard {Btu/W-h}, IEER {Btu/W-h}
 DX Cooling Coil Standard Rating Information, Coil:Cooling:DX:SingleSpeed, PTHP 1 SPD DX CLG COIL, 1559.9, 2.53, 8.64, 8.70, 8.60, 8.70
 DX Cooling Coil Standard Rating Information, Coil:Cooling:DX:SingleSpeed, PTHP 1 SPD DX CLG COIL, 1544.0, 2.44, 8.34, 8.38, 8.52,  
 Component Sizing Information, Coil:Heating:DX:SingleSpeed, PTHP 1 SPD DX HTG COIL, Design Size Rated Air Flow Rate [m3/s], 9.85926E-002
 Component Sizing Information, Coil:Heating:DX:SingleSpeed, PTHP 1 SPD DX HTG COIL, Design Size Gross Rated Heating Capacity [W], 1632.05829
 Component Sizing Information, Coil:Heating:DX:SingleSpeed, PTHP 1 SPD DX HTG COIL, User-Specified Gross Rated Heating Capacity [W], 2.22045E-016
 Component Sizing Information, Coil:Heating:DX:SingleSpeed, PTHP 1 SPD DX HTG COIL, Design Size Resistive Defrost Heater Capacity [W], 1632.05829
 Component Sizing Information, Coil:Heating:DX:SingleSpeed, PTHP 1 SPD DX HTG COIL, User-Specified Resistive Defrost Heater Capacity [W], 2000.00000
! <DX Heating Coil Standard Rating Information>, Component Type, Component Name, High Temperature Heating (net) Rating Capacity {W}, Low Temperature Heating (net) Rating Capacity {W}, HSPF {Btu/W-h}, Region Number
 DX Heating Coil Standard Rating Information, Coil:Heating:DX:SingleSpeed, PTHP 1 SPD DX HTG COIL, 76.2, 76.2, 3.41, 4
 DX Heating Coil Standard Rating Information, Coil:Heating:DX:SingleSpeed, PTHP 1 SPD DX HTG COIL, 92.1, 92.1, 3.07, 4
 Component Sizing Information, Fan:ConstantVolume, PTHP CV FAN, Design Size Maximum Flow Rate [m3/s], 9.85926E-002
 Component Sizing Information, Coil:Heating:Electric, PTHP ELEC HTG BACKUP COIL, Design Size Nominal Capacity [W], 2290.81799
 Component Sizing Information, ZONEHVAC:BASEBOARD:CONVECTIVE:ELECTRIC, ELEC BASEBOARD 21, Design Size Heating Design Capacity [W], 3847.64261
 Component Sizing Information, ZoneHVAC:PackagedTerminalHeatPump, PTHP 1, Design Size Cooling Supply Air Flow Rate [m3/s], 0.16463
 Component Sizing Information, ZoneHVAC:PackagedTerminalHeatPump, PTHP 1, Design Size Heating Supply Air Flow Rate [m3/s], 0.16463
 Component Sizing Information, ZoneHVAC:PackagedTerminalHeatPump, PTHP 1, User-Specified Heating Supply Air Flow Rate [m3/s], 2.22045E-016
 Component Sizing Information, ZoneHVAC:PackagedTerminalHeatPump, PTHP 1, Design Size No Load Supply Air Flow Rate [m3/s], 0.16463
 Component Sizing Information, ZoneHVAC:PackagedTerminalHeatPump, PTHP 1, Design Size Outdoor Air Flow Rate During Cooling Operation [m3/s], 4.45868E-003
 Component Sizing Information, ZoneHVAC:PackagedTerminalHeatPump, PTHP 1, Design Size Outdoor Air Flow Rate During Heating Operation [m3/s], 4.45868E-003
 Component Sizing Information, ZoneHVAC:PackagedTerminalHeatPump, PTHP 1, Design Size Outdoor Air Flow Rate When No Cooling or Heating is Needed [m3/s], 4.45868E-003
 Component Sizing Information, ZoneHVAC:PackagedTerminalHeatPump, PTHP 1, Design Size Maximum Supply Air Temperature from Supplemental Heater [C], 40.00000
 Component Sizing Information, Coil:Cooling:DX:SingleSpeed, PTHP 1 SPD DX CLG COIL 1, Design Size Rated Air Flow Rate [m3/s], 0.16463
 Component Sizing Information, Coil:Cooling:DX:SingleSpeed, PTHP 1 SPD DX CLG COIL 1, Design Size Gross Rated Total Cooling Capacity [W], 2725.29063
 Component Sizing Information, Coil:Cooling:DX:SingleSpeed, PTHP 1 SPD DX CLG COIL 1, Design Size Gross Rated Sensible Heat Ratio, 0.80066
 DX Cooling Coil Standard Rating Information, Coil:Cooling:DX:SingleSpeed, PTHP 1 SPD DX CLG COIL 1, 2604.8, 2.53, 8.64, 8.70, 8.60, 8.70
 DX Cooling Coil Standard Rating Information, Coil:Cooling:DX:SingleSpeed, PTHP 1 SPD DX CLG COIL 1, 2578.3, 2.44, 8.34, 8.38, 8.52,  
 Component Sizing Information, Coil:Heating:DX:SingleSpeed, PTHP 1 SPD DX HTG COIL 1, Design Size Rated Air Flow Rate [m3/s], 0.16463
 Component Sizing Information, Coil:Heating:DX:SingleSpeed, PTHP 1 SPD DX HTG COIL 1, Design Size Gross Rated Heating Capacity [W], 2725.29063
 Component Sizing Information, Coil:Heating:DX:SingleSpeed, PTHP 1 SPD DX HTG COIL 1, User-Specified Gross Rated Heating Capacity [W], 2.22045E-016
 Component Sizing Information, Coil:Heating:DX:SingleSpeed, PTHP 1 SPD DX HTG COIL 1, Design Size Resistive Defrost Heater Capacity [W], 2725.29063
 Component Sizing Information, Coil:Heating:DX:SingleSpeed, PTHP 1 SPD DX HTG COIL 1, User-Specified Resistive Defrost Heater Capacity [W], 2000.00000
 DX Heating Coil Standard Rating Information, Coil:Heating:DX:SingleSpeed, PTHP 1 SPD DX HTG COIL 1, 127.3, 127.3, 3.40, 4
 DX Heating Coil Standard Rating Information, Coil:Heating:DX:SingleSpeed, PTHP 1 SPD DX HTG COIL 1, 153.8, 153.8, 3.07, 4
 Component Sizing Information, Fan:ConstantVolume, PTHP CV FAN 1, Design Size Maximum Flow Rate [m3/s], 0.16463
 Component Sizing Information, Coil:Heating:Electric, PTHP ELEC HTG BACKUP COIL 1, Design Size Nominal Capacity [W], 4069.35518
 Component Sizing Information, ZONEHVAC:BASEBOARD:CONVECTIVE:ELECTRIC, ELEC BASEBOARD 8, Design Size Heating Design Capacity [W], 74001.08702
 Component Sizing Information, ZoneHVAC:PackagedTerminalHeatPump, PTHP 13, Design Size Cooling Supply Air Flow Rate [m3/s], 3.17019
 Component Sizing Information, ZoneHVAC:PackagedTerminalHeatPump, PTHP 13, Design Size Heating Supply Air Flow Rate [m3/s], 3.17019
 Component Sizing Information, ZoneHVAC:PackagedTerminalHeatPump, PTHP 13, User-Specified Heating Supply Air Flow Rate [m3/s], 2.22045E-016
 Component Sizing Information, ZoneHVAC:PackagedTerminalHeatPump, PTHP 13, Design Size No Load Supply Air Flow Rate [m3/s], 3.17019
 Component Sizing Information, ZoneHVAC:PackagedTerminalHeatPump, PTHP 13, Design Size Outdoor Air Flow Rate During Cooling Operation [m3/s], 4.31006E-002
 Component Sizing Information, ZoneHVAC:PackagedTerminalHeatPump, PTHP 13, Design Size Outdoor Air Flow Rate During Heating Operation [m3/s], 4.31006E-002
 Component Sizing Information, ZoneHVAC:PackagedTerminalHeatPump, PTHP 13, Design Size Outdoor Air Flow Rate When No Cooling or Heating is Needed [m3/s], 4.31006E-002
 Component Sizing Information, ZoneHVAC:PackagedTerminalHeatPump, PTHP 13, Design Size Maximum Supply Air Temperature from Supplemental Heater [C], 40.00000
 Component Sizing Information, Coil:Cooling:DX:SingleSpeed, PTHP 1 SPD DX CLG COIL 13, Design Size Rated Air Flow Rate [m3/s], 3.17019
 Component Sizing Information, Coil:Cooling:DX:SingleSpeed, PTHP 1 SPD DX CLG COIL 13, Design Size Gross Rated Total Cooling Capacity [W], 52477.84033
 Component Sizing Information, Coil:Cooling:DX:SingleSpeed, PTHP 1 SPD DX CLG COIL 13, Design Size Gross Rated Sensible Heat Ratio, 0.80066
 DX Cooling Coil Standard Rating Information, Coil:Cooling:DX:SingleSpeed, PTHP 1 SPD DX CLG COIL 13, 50158.5, 2.53, 8.64, 8.70, 8.60, 8.70
 DX Cooling Coil Standard Rating Information, Coil:Cooling:DX:SingleSpeed, PTHP 1 SPD DX CLG COIL 13, 49647.8, 2.44, 8.34, 8.38, 8.52,  
 Component Sizing Information, Coil:Heating:DX:SingleSpeed, PTHP 1 SPD DX HTG COIL 13, Design Size Rated Air Flow Rate [m3/s], 3.17019
 Component Sizing Information, Coil:Heating:DX:SingleSpeed, PTHP 1 SPD DX HTG COIL 13, Design Size Gross Rated Heating Capacity [W], 52477.84033
 Component Sizing Information, Coil:Heating:DX:SingleSpeed, PTHP 1 SPD DX HTG COIL 13, User-Specified Gross Rated Heating Capacity [W], 2.22045E-016
 Component Sizing Information, Coil:Heating:DX:SingleSpeed, PTHP 1 SPD DX HTG COIL 13, Design Size Resistive Defrost Heater Capacity [W], 52477.84033
 Component Sizing Information, Coil:Heating:DX:SingleSpeed, PTHP 1 SPD DX HTG COIL 13, User-Specified Resistive Defrost Heater Capacity [W], 2000.00000
 DX Heating Coil Standard Rating Information, Coil:Heating:DX:SingleSpeed, PTHP 1 SPD DX HTG COIL 13, 2451.5, 2451.5, 2.98, 4
 DX Heating Coil Standard Rating Information, Coil:Heating:DX:SingleSpeed, PTHP 1 SPD DX HTG COIL 13, 2962.2, 2962.2, 3.07, 4
 Component Sizing Information, Fan:ConstantVolume, PTHP CV FAN 13, Design Size Maximum Flow Rate [m3/s], 3.17019
 Component Sizing Information, Coil:Heating:Electric, PTHP ELEC HTG BACKUP COIL 13, Design Size Nominal Capacity [W], 76037.44490
 Component Sizing Information, ZONEHVAC:BASEBOARD:CONVECTIVE:ELECTRIC, ELEC BASEBOARD 18, Design Size Heating Design Capacity [W], 77329.50228
 Component Sizing Information, ZoneHVAC:PackagedTerminalHeatPump, PTHP 14, Design Size Cooling Supply Air Flow Rate [m3/s], 3.31283
 Component Sizing Information, ZoneHVAC:PackagedTerminalHeatPump, PTHP 14, Design Size Heating Supply Air Flow Rate [m3/s], 3.31283
 Component Sizing Information, ZoneHVAC:PackagedTerminalHeatPump, PTHP 14, User-Specified Heating Supply Air Flow Rate [m3/s], 2.22045E-016
 Component Sizing Information, ZoneHVAC:PackagedTerminalHeatPump, PTHP 14, Design Size No Load Supply Air Flow Rate [m3/s], 3.31283
 Component Sizing Information, ZoneHVAC:PackagedTerminalHeatPump, PTHP 14, Design Size Outdoor Air Flow Rate During Cooling Operation [m3/s], 4.45868E-002
 Component Sizing Information, ZoneHVAC:PackagedTerminalHeatPump, PTHP 14, Design Size Outdoor Air Flow Rate During Heating Operation [m3/s], 4.45868E-002
 Component Sizing Information, ZoneHVAC:PackagedTerminalHeatPump, PTHP 14, Design Size Outdoor Air Flow Rate When No Cooling or Heating is Needed [m3/s], 4.45868E-002
 Component Sizing Information, ZoneHVAC:PackagedTerminalHeatPump, PTHP 14, Design Size Maximum Supply Air Temperature from Supplemental Heater [C], 40.00000
 Component Sizing Information, Coil:Cooling:DX:SingleSpeed, PTHP 1 SPD DX CLG COIL 14, Design Size Rated Air Flow Rate [m3/s], 3.31283
 Component Sizing Information, Coil:Cooling:DX:SingleSpeed, PTHP 1 SPD DX CLG COIL 14, Design Size Gross Rated Total Cooling Capacity [W], 54839.08573
 Component Sizing Information, Coil:Cooling:DX:SingleSpeed, PTHP 1 SPD DX CLG COIL 14, Design Size Gross Rated Sensible Heat Ratio, 0.80066
 DX Cooling Coil Standard Rating Information, Coil:Cooling:DX:SingleSpeed, PTHP 1 SPD DX CLG COIL 14, 52415.4, 2.53, 8.64, 8.70, 8.60, 8.70
 DX Cooling Coil Standard Rating Information, Coil:Cooling:DX:SingleSpeed, PTHP 1 SPD DX CLG COIL 14, 51881.7, 2.44, 8.34, 8.38, 8.52,  
 Component Sizing Information, Coil:Heating:DX:SingleSpeed, PTHP 1 SPD DX HTG COIL 14, Design Size Rated Air Flow Rate [m3/s], 3.31283
 Component Sizing Information, Coil:Heating:DX:SingleSpeed, PTHP 1 SPD DX HTG COIL 14, Design Size Gross Rated Heating Capacity [W], 54839.08573
 Component Sizing Information, Coil:Heating:DX:SingleSpeed, PTHP 1 SPD DX HTG COIL 14, User-Specified Gross Rated Heating Capacity [W], 2.22045E-016
 Component Sizing Information, Coil:Heating:DX:SingleSpeed, PTHP 1 SPD DX HTG COIL 14, Design Size Resistive Defrost Heater Capacity [W], 54839.08573
 Component Sizing Information, Coil:Heating:DX:SingleSpeed, PTHP 1 SPD DX HTG COIL 14, User-Specified Resistive Defrost Heater Capacity [W], 2000.00000
 DX Heating Coil Standard Rating Information, Coil:Heating:DX:SingleSpeed, PTHP 1 SPD DX HTG COIL 14, 2561.8, 2561.8, 2.97, 4
 DX Heating Coil Standard Rating Information, Coil:Heating:DX:SingleSpeed, PTHP 1 SPD DX HTG COIL 14, 3095.5, 3095.5, 3.07, 4
 Component Sizing Information, Fan:ConstantVolume, PTHP CV FAN 14, Design Size Maximum Flow Rate [m3/s], 3.31283
 Component Sizing Information, Coil:Heating:Electric, PTHP ELEC HTG BACKUP COIL 14, Design Size Nominal Capacity [W], 79433.54422
 Component Sizing Information, ZONEHVAC:BASEBOARD:CONVECTIVE:ELECTRIC, ELEC BASEBOARD 17, Design Size Heating Design Capacity [W], 9635.24273
 Component Sizing Information, ZoneHVAC:PackagedTerminalHeatPump, PTHP 4, Design Size Cooling Supply Air Flow Rate [m3/s], 0.41278
 Component Sizing Information, ZoneHVAC:PackagedTerminalHeatPump, PTHP 4, Design Size Heating Supply Air Flow Rate [m3/s], 0.41278
 Component Sizing Information, ZoneHVAC:PackagedTerminalHeatPump, PTHP 4, User-Specified Heating Supply Air Flow Rate [m3/s], 2.22045E-016
 Component Sizing Information, ZoneHVAC:PackagedTerminalHeatPump, PTHP 4, Design Size No Load Supply Air Flow Rate [m3/s], 0.41278
 Component Sizing Information, ZoneHVAC:PackagedTerminalHeatPump, PTHP 4, Design Size Outdoor Air Flow Rate During Cooling Operation [m3/s], 4.45868E-003
 Component Sizing Information, ZoneHVAC:PackagedTerminalHeatPump, PTHP 4, Design Size Outdoor Air Flow Rate During Heating Operation [m3/s], 4.45868E-003
 Component Sizing Information, ZoneHVAC:PackagedTerminalHeatPump, PTHP 4, Design Size Outdoor Air Flow Rate When No Cooling or Heating is Needed [m3/s], 4.45868E-003
 Component Sizing Information, ZoneHVAC:PackagedTerminalHeatPump, PTHP 4, Design Size Maximum Supply Air Temperature from Supplemental Heater [C], 40.00000
 Component Sizing Information, Coil:Cooling:DX:SingleSpeed, PTHP 1 SPD DX CLG COIL 4, Design Size Rated Air Flow Rate [m3/s], 0.41278
 Component Sizing Information, Coil:Cooling:DX:SingleSpeed, PTHP 1 SPD DX CLG COIL 4, Design Size Gross Rated Total Cooling Capacity [W], 6832.95071
 Component Sizing Information, Coil:Cooling:DX:SingleSpeed, PTHP 1 SPD DX CLG COIL 4, Design Size Gross Rated Sensible Heat Ratio, 0.80066
 DX Cooling Coil Standard Rating Information, Coil:Cooling:DX:SingleSpeed, PTHP 1 SPD DX CLG COIL 4, 6531.0, 2.53, 8.64, 8.70, 8.60, 8.70
 DX Cooling Coil Standard Rating Information, Coil:Cooling:DX:SingleSpeed, PTHP 1 SPD DX CLG COIL 4, 6464.5, 2.44, 8.34, 8.38, 8.52,  
 Component Sizing Information, Coil:Heating:DX:SingleSpeed, PTHP 1 SPD DX HTG COIL 4, Design Size Rated Air Flow Rate [m3/s], 0.41278
 Component Sizing Information, Coil:Heating:DX:SingleSpeed, PTHP 1 SPD DX HTG COIL 4, Design Size Gross Rated Heating Capacity [W], 6832.95071
 Component Sizing Information, Coil:Heating:DX:SingleSpeed, PTHP 1 SPD DX HTG COIL 4, User-Specified Gross Rated Heating Capacity [W], 2.22045E-016
 Component Sizing Information, Coil:Heating:DX:SingleSpeed, PTHP 1 SPD DX HTG COIL 4, Design Size Resistive Defrost Heater Capacity [W], 6832.95071
 Component Sizing Information, Coil:Heating:DX:SingleSpeed, PTHP 1 SPD DX HTG COIL 4, User-Specified Resistive Defrost Heater Capacity [W], 2000.00000
 DX Heating Coil Standard Rating Information, Coil:Heating:DX:SingleSpeed, PTHP 1 SPD DX HTG COIL 4, 319.2, 319.2, 3.37, 4
 DX Heating Coil Standard Rating Information, Coil:Heating:DX:SingleSpeed, PTHP 1 SPD DX HTG COIL 4, 385.7, 385.7, 3.07, 4
 Component Sizing Information, Fan:ConstantVolume, PTHP CV FAN 4, Design Size Maximum Flow Rate [m3/s], 0.41278
 Component Sizing Information, Coil:Heating:Electric, PTHP ELEC HTG BACKUP COIL 4, Design Size Nominal Capacity [W], 9839.75110
 Component Sizing Information, ZONEHVAC:BASEBOARD:CONVECTIVE:ELECTRIC, ELEC BASEBOARD 20, Design Size Heating Design Capacity [W], 117233.48893
 Component Sizing Information, ZoneHVAC:PackagedTerminalHeatPump, PTHP 21, Design Size Cooling Supply Air Flow Rate [m3/s], 6.65578
 Component Sizing Information, ZoneHVAC:PackagedTerminalHeatPump, PTHP 21, Design Size Heating Supply Air Flow Rate [m3/s], 6.65578
 Component Sizing Information, ZoneHVAC:PackagedTerminalHeatPump, PTHP 21, User-Specified Heating Supply Air Flow Rate [m3/s], 2.22045E-016
 Component Sizing Information, ZoneHVAC:PackagedTerminalHeatPump, PTHP 21, Design Size No Load Supply Air Flow Rate [m3/s], 6.65578
 Component Sizing Information, ZoneHVAC:PackagedTerminalHeatPump, PTHP 21, Design Size Outdoor Air Flow Rate During Cooling Operation [m3/s], 3.73680E-002
 Component Sizing Information, ZoneHVAC:PackagedTerminalHeatPump, PTHP 21, Design Size Outdoor Air Flow Rate During Heating Operation [m3/s], 3.73680E-002
 Component Sizing Information, ZoneHVAC:PackagedTerminalHeatPump, PTHP 21, Design Size Outdoor Air Flow Rate When No Cooling or Heating is Needed [m3/s], 3.73680E-002
 Component Sizing Information, ZoneHVAC:PackagedTerminalHeatPump, PTHP 21, Design Size Maximum Supply Air Temperature from Supplemental Heater [C], 40.00000
 Component Sizing Information, Coil:Cooling:DX:SingleSpeed, PTHP 1 SPD DX CLG COIL 21, Design Size Rated Air Flow Rate [m3/s], 6.65578
 Component Sizing Information, Coil:Cooling:DX:SingleSpeed, PTHP 1 SPD DX CLG COIL 21, Design Size Gross Rated Total Cooling Capacity [W], 110176.72182
 Component Sizing Information, Coil:Cooling:DX:SingleSpeed, PTHP 1 SPD DX CLG COIL 21, Design Size Gross Rated Sensible Heat Ratio, 0.80066
 DX Cooling Coil Standard Rating Information, Coil:Cooling:DX:SingleSpeed, PTHP 1 SPD DX CLG COIL 21, 105307.3, 2.53, 8.64, 8.70, 8.60, 8.70
 DX Cooling Coil Standard Rating Information, Coil:Cooling:DX:SingleSpeed, PTHP 1 SPD DX CLG COIL 21, 104235.0, 2.44, 8.34, 8.38, 8.52,  
 Component Sizing Information, Coil:Heating:DX:SingleSpeed, PTHP 1 SPD DX HTG COIL 21, Design Size Rated Air Flow Rate [m3/s], 6.65578
 Component Sizing Information, Coil:Heating:DX:SingleSpeed, PTHP 1 SPD DX HTG COIL 21, Design Size Gross Rated Heating Capacity [W], 110176.72182
 Component Sizing Information, Coil:Heating:DX:SingleSpeed, PTHP 1 SPD DX HTG COIL 21, User-Specified Gross Rated Heating Capacity [W], 2.22045E-016
 Component Sizing Information, Coil:Heating:DX:SingleSpeed, PTHP 1 SPD DX HTG COIL 21, Design Size Resistive Defrost Heater Capacity [W], 110176.72182
 Component Sizing Information, Coil:Heating:DX:SingleSpeed, PTHP 1 SPD DX HTG COIL 21, User-Specified Resistive Defrost Heater Capacity [W], 2000.00000
 DX Heating Coil Standard Rating Information, Coil:Heating:DX:SingleSpeed, PTHP 1 SPD DX HTG COIL 21, 5146.9, 5146.9, 2.96, 4
 DX Heating Coil Standard Rating Information, Coil:Heating:DX:SingleSpeed, PTHP 1 SPD DX HTG COIL 21, 6219.2, 6219.2, 3.07, 4
 Component Sizing Information, Fan:ConstantVolume, PTHP CV FAN 21, Design Size Maximum Flow Rate [m3/s], 6.65578
 Component Sizing Information, Coil:Heating:Electric, PTHP ELEC HTG BACKUP COIL 21, Design Size Nominal Capacity [W], 118835.29390
 Component Sizing Information, ZONEHVAC:BASEBOARD:CONVECTIVE:ELECTRIC, ELEC BASEBOARD 10, Design Size Heating Design Capacity [W], 75451.14909
 Component Sizing Information, ZoneHVAC:PackagedTerminalHeatPump, PTHP 3, Design Size Cooling Supply Air Flow Rate [m3/s], 3.23226
 Component Sizing Information, ZoneHVAC:PackagedTerminalHeatPump, PTHP 3, Design Size Heating Supply Air Flow Rate [m3/s], 3.23226
 Component Sizing Information, ZoneHVAC:PackagedTerminalHeatPump, PTHP 3, User-Specified Heating Supply Air Flow Rate [m3/s], 2.22045E-016
 Component Sizing Information, ZoneHVAC:PackagedTerminalHeatPump, PTHP 3, Design Size No Load Supply Air Flow Rate [m3/s], 3.23226
 Component Sizing Information, ZoneHVAC:PackagedTerminalHeatPump, PTHP 3, Design Size Outdoor Air Flow Rate During Cooling Operation [m3/s], 4.45868E-002
 Component Sizing Information, ZoneHVAC:PackagedTerminalHeatPump, PTHP 3, Design Size Outdoor Air Flow Rate During Heating Operation [m3/s], 4.45868E-002
 Component Sizing Information, ZoneHVAC:PackagedTerminalHeatPump, PTHP 3, Design Size Outdoor Air Flow Rate When No Cooling or Heating is Needed [m3/s], 4.45868E-002
 Component Sizing Information, ZoneHVAC:PackagedTerminalHeatPump, PTHP 3, Design Size Maximum Supply Air Temperature from Supplemental Heater [C], 40.00000
 Component Sizing Information, Coil:Cooling:DX:SingleSpeed, PTHP 1 SPD DX CLG COIL 3, Design Size Rated Air Flow Rate [m3/s], 3.23226
 Component Sizing Information, Coil:Cooling:DX:SingleSpeed, PTHP 1 SPD DX CLG COIL 3, Design Size Gross Rated Total Cooling Capacity [W], 53505.29954
 Component Sizing Information, Coil:Cooling:DX:SingleSpeed, PTHP 1 SPD DX CLG COIL 3, Design Size Gross Rated Sensible Heat Ratio, 0.80066
 DX Cooling Coil Standard Rating Information, Coil:Cooling:DX:SingleSpeed, PTHP 1 SPD DX CLG COIL 3, 51140.5, 2.53, 8.64, 8.70, 8.60, 8.70
 DX Cooling Coil Standard Rating Information, Coil:Cooling:DX:SingleSpeed, PTHP 1 SPD DX CLG COIL 3, 50619.8, 2.44, 8.34, 8.38, 8.52,  
 Component Sizing Information, Coil:Heating:DX:SingleSpeed, PTHP 1 SPD DX HTG COIL 3, Design Size Rated Air Flow Rate [m3/s], 3.23226
 Component Sizing Information, Coil:Heating:DX:SingleSpeed, PTHP 1 SPD DX HTG COIL 3, Design Size Gross Rated Heating Capacity [W], 53505.29954
 Component Sizing Information, Coil:Heating:DX:SingleSpeed, PTHP 1 SPD DX HTG COIL 3, User-Specified Gross Rated Heating Capacity [W], 2.22045E-016
 Component Sizing Information, Coil:Heating:DX:SingleSpeed, PTHP 1 SPD DX HTG COIL 3, Design Size Resistive Defrost Heater Capacity [W], 53505.29954
 Component Sizing Information, Coil:Heating:DX:SingleSpeed, PTHP 1 SPD DX HTG COIL 3, User-Specified Resistive Defrost Heater Capacity [W], 2000.00000
 DX Heating Coil Standard Rating Information, Coil:Heating:DX:SingleSpeed, PTHP 1 SPD DX HTG COIL 3, 2499.5, 2499.5, 2.98, 4
 DX Heating Coil Standard Rating Information, Coil:Heating:DX:SingleSpeed, PTHP 1 SPD DX HTG COIL 3, 3020.2, 3020.2, 3.07, 4
 Component Sizing Information, Fan:ConstantVolume, PTHP CV FAN 3, Design Size Maximum Flow Rate [m3/s], 3.23226
 Component Sizing Information, Coil:Heating:Electric, PTHP ELEC HTG BACKUP COIL 3, Design Size Nominal Capacity [W], 77560.94284
 Component Sizing Information, ZONEHVAC:BASEBOARD:CONVECTIVE:ELECTRIC, ELEC BASEBOARD 19, Design Size Heating Design Capacity [W], 75881.63482
 Component Sizing Information, ZoneHVAC:PackagedTerminalHeatPump, PTHP 19, Design Size Cooling Supply Air Flow Rate [m3/s], 3.25085
 Component Sizing Information, ZoneHVAC:PackagedTerminalHeatPump, PTHP 19, Design Size Heating Supply Air Flow Rate [m3/s], 3.25085
 Component Sizing Information, ZoneHVAC:PackagedTerminalHeatPump, PTHP 19, User-Specified Heating Supply Air Flow Rate [m3/s], 2.22045E-016
 Component Sizing Information, ZoneHVAC:PackagedTerminalHeatPump, PTHP 19, Design Size No Load Supply Air Flow Rate [m3/s], 3.25085
 Component Sizing Information, ZoneHVAC:PackagedTerminalHeatPump, PTHP 19, Design Size Outdoor Air Flow Rate During Cooling Operation [m3/s], 4.31006E-002
 Component Sizing Information, ZoneHVAC:PackagedTerminalHeatPump, PTHP 19, Design Size Outdoor Air Flow Rate During Heating Operation [m3/s], 4.31006E-002
 Component Sizing Information, ZoneHVAC:PackagedTerminalHeatPump, PTHP 19, Design Size Outdoor Air Flow Rate When No Cooling or Heating is Needed [m3/s], 4.31006E-002
 Component Sizing Information, ZoneHVAC:PackagedTerminalHeatPump, PTHP 19, Design Size Maximum Supply Air Temperature from Supplemental Heater [C], 40.00000
 Component Sizing Information, Coil:Cooling:DX:SingleSpeed, PTHP 1 SPD DX CLG COIL 19, Design Size Rated Air Flow Rate [m3/s], 3.25085
 Component Sizing Information, Coil:Cooling:DX:SingleSpeed, PTHP 1 SPD DX CLG COIL 19, Design Size Gross Rated Total Cooling Capacity [W], 53813.17269
 Component Sizing Information, Coil:Cooling:DX:SingleSpeed, PTHP 1 SPD DX CLG COIL 19, Design Size Gross Rated Sensible Heat Ratio, 0.80066
 DX Cooling Coil Standard Rating Information, Coil:Cooling:DX:SingleSpeed, PTHP 1 SPD DX CLG COIL 19, 51434.8, 2.53, 8.64, 8.70, 8.60, 8.70
 DX Cooling Coil Standard Rating Information, Coil:Cooling:DX:SingleSpeed, PTHP 1 SPD DX CLG COIL 19, 50911.1, 2.44, 8.34, 8.38, 8.52,  
 Component Sizing Information, Coil:Heating:DX:SingleSpeed, PTHP 1 SPD DX HTG COIL 19, Design Size Rated Air Flow Rate [m3/s], 3.25085
 Component Sizing Information, Coil:Heating:DX:SingleSpeed, PTHP 1 SPD DX HTG COIL 19, Design Size Gross Rated Heating Capacity [W], 53813.17269
 Component Sizing Information, Coil:Heating:DX:SingleSpeed, PTHP 1 SPD DX HTG COIL 19, User-Specified Gross Rated Heating Capacity [W], 2.22045E-016
 Component Sizing Information, Coil:Heating:DX:SingleSpeed, PTHP 1 SPD DX HTG COIL 19, Design Size Resistive Defrost Heater Capacity [W], 53813.17269
 Component Sizing Information, Coil:Heating:DX:SingleSpeed, PTHP 1 SPD DX HTG COIL 19, User-Specified Resistive Defrost Heater Capacity [W], 2000.00000
 DX Heating Coil Standard Rating Information, Coil:Heating:DX:SingleSpeed, PTHP 1 SPD DX HTG COIL 19, 2513.9, 2513.9, 2.97, 4
 DX Heating Coil Standard Rating Information, Coil:Heating:DX:SingleSpeed, PTHP 1 SPD DX HTG COIL 19, 3037.6, 3037.6, 3.07, 4
 Component Sizing Information, Fan:ConstantVolume, PTHP CV FAN 19, Design Size Maximum Flow Rate [m3/s], 3.25085
 Component Sizing Information, Coil:Heating:Electric, PTHP ELEC HTG BACKUP COIL 19, Design Size Nominal Capacity [W], 77912.22353
 Component Sizing Information, ZONEHVAC:BASEBOARD:CONVECTIVE:ELECTRIC, ELEC BASEBOARD 15, Design Size Heating Design Capacity [W], 78629.29955
 Component Sizing Information, ZoneHVAC:PackagedTerminalHeatPump, PTHP 16, Design Size Cooling Supply Air Flow Rate [m3/s], 3.36845
 Component Sizing Information, ZoneHVAC:PackagedTerminalHeatPump, PTHP 16, Design Size Heating Supply Air Flow Rate [m3/s], 3.36845
 Component Sizing Information, ZoneHVAC:PackagedTerminalHeatPump, PTHP 16, User-Specified Heating Supply Air Flow Rate [m3/s], 2.22045E-016
 Component Sizing Information, ZoneHVAC:PackagedTerminalHeatPump, PTHP 16, Design Size No Load Supply Air Flow Rate [m3/s], 3.36845
 Component Sizing Information, ZoneHVAC:PackagedTerminalHeatPump, PTHP 16, Design Size Outdoor Air Flow Rate During Cooling Operation [m3/s], 0.00000
 Component Sizing Information, ZoneHVAC:PackagedTerminalHeatPump, PTHP 16, Design Size Outdoor Air Flow Rate During Heating Operation [m3/s], 0.00000
 Component Sizing Information, ZoneHVAC:PackagedTerminalHeatPump, PTHP 16, Design Size Outdoor Air Flow Rate When No Cooling or Heating is Needed [m3/s], 0.00000
 Component Sizing Information, ZoneHVAC:PackagedTerminalHeatPump, PTHP 16, Design Size Maximum Supply Air Temperature from Supplemental Heater [C], 40.00000
 Component Sizing Information, Coil:Cooling:DX:SingleSpeed, PTHP 1 SPD DX CLG COIL 16, Design Size Rated Air Flow Rate [m3/s], 3.36845
 Component Sizing Information, Coil:Cooling:DX:SingleSpeed, PTHP 1 SPD DX CLG COIL 16, Design Size Gross Rated Total Cooling Capacity [W], 55759.75596
 Component Sizing Information, Coil:Cooling:DX:SingleSpeed, PTHP 1 SPD DX CLG COIL 16, Design Size Gross Rated Sensible Heat Ratio, 0.80066
 DX Cooling Coil Standard Rating Information, Coil:Cooling:DX:SingleSpeed, PTHP 1 SPD DX CLG COIL 16, 53295.4, 2.53, 8.64, 8.70, 8.60, 8.70
 DX Cooling Coil Standard Rating Information, Coil:Cooling:DX:SingleSpeed, PTHP 1 SPD DX CLG COIL 16, 52752.7, 2.44, 8.34, 8.38, 8.52,  
 Component Sizing Information, Coil:Heating:DX:SingleSpeed, PTHP 1 SPD DX HTG COIL 16, Design Size Rated Air Flow Rate [m3/s], 3.36845
 Component Sizing Information, Coil:Heating:DX:SingleSpeed, PTHP 1 SPD DX HTG COIL 16, Design Size Gross Rated Heating Capacity [W], 55759.75596
 Component Sizing Information, Coil:Heating:DX:SingleSpeed, PTHP 1 SPD DX HTG COIL 16, User-Specified Gross Rated Heating Capacity [W], 2.22045E-016
 Component Sizing Information, Coil:Heating:DX:SingleSpeed, PTHP 1 SPD DX HTG COIL 16, Design Size Resistive Defrost Heater Capacity [W], 55759.75596
 Component Sizing Information, Coil:Heating:DX:SingleSpeed, PTHP 1 SPD DX HTG COIL 16, User-Specified Resistive Defrost Heater Capacity [W], 2000.00000
 DX Heating Coil Standard Rating Information, Coil:Heating:DX:SingleSpeed, PTHP 1 SPD DX HTG COIL 16, 2604.8, 2604.8, 2.96, 4
 DX Heating Coil Standard Rating Information, Coil:Heating:DX:SingleSpeed, PTHP 1 SPD DX HTG COIL 16, 3147.5, 3147.5, 3.07, 4
 Component Sizing Information, Fan:ConstantVolume, PTHP CV FAN 16, Design Size Maximum Flow Rate [m3/s], 3.36845
 Component Sizing Information, Coil:Heating:Electric, PTHP ELEC HTG BACKUP COIL 16, Design Size Nominal Capacity [W], 78293.32315
 Component Sizing Information, ZONEHVAC:BASEBOARD:CONVECTIVE:ELECTRIC, ELEC BASEBOARD 9, Design Size Heating Design Capacity [W], 9231.46884
 Component Sizing Information, ZoneHVAC:PackagedTerminalHeatPump, PTHP 6, Design Size Cooling Supply Air Flow Rate [m3/s], 0.39549
 Component Sizing Information, ZoneHVAC:PackagedTerminalHeatPump, PTHP 6, Design Size Heating Supply Air Flow Rate [m3/s], 0.39549
 Component Sizing Information, ZoneHVAC:PackagedTerminalHeatPump, PTHP 6, User-Specified Heating Supply Air Flow Rate [m3/s], 2.22045E-016
 Component Sizing Information, ZoneHVAC:PackagedTerminalHeatPump, PTHP 6, Design Size No Load Supply Air Flow Rate [m3/s], 0.39549
 Component Sizing Information, ZoneHVAC:PackagedTerminalHeatPump, PTHP 6, Design Size Outdoor Air Flow Rate During Cooling Operation [m3/s], 4.16144E-003
[...]
Environment:WarmupDays,  5
 Warmup Convergence Information,THERMAL ZONE 1,SizingPeriod: MONTREAL INT'L ANN HTG 99.6% CONDNS DB,4.1796173522E-002,0.2248009374,Pass,Pass,2.3454187661E-002,0.1189698129,Pass,Pass
 Warmup Convergence Information,THERMAL ZONE 10,SizingPeriod: MONTREAL INT'L ANN HTG 99.6% CONDNS DB,4.5353191792E-002,0.2405839614,Pass,Pass,1.0780435172E-002,4.4724924319E-002,Pass,Pass
 Warmup Convergence Information,THERMAL ZONE 11,SizingPeriod: MONTREAL INT'L ANN HTG 99.6% CONDNS DB,4.2507126081E-002,0.2462634774,Pass,Pass,6.1703639140E-003,2.5077390445E-002,Pass,Pass
 Warmup Convergence Information,THERMAL ZONE 12,SizingPeriod: MONTREAL INT'L ANN HTG 99.6% CONDNS DB,4.2498848211E-002,0.2462598030,Pass,Pass,6.0773455081E-003,2.4732933592E-002,Pass,Pass
 Warmup Convergence Information,THERMAL ZONE 13,SizingPeriod: MONTREAL INT'L ANN HTG 99.6% CONDNS DB,4.2224570123E-002,0.2462425057,Pass,Pass,5.1601556586E-003,2.1180830681E-002,Pass,Pass
 Warmup Convergence Information,THERMAL ZONE 14,SizingPeriod: MONTREAL INT'L ANN HTG 99.6% CONDNS DB,4.1665598291E-002,0.2470444208,Pass,Pass,5.1530791669E-003,2.1292868171E-002,Pass,Pass
 Warmup Convergence Information,THERMAL ZONE 15,SizingPeriod: MONTREAL INT'L ANN HTG 99.6% CONDNS DB,4.2524408412E-002,0.2462186183,Pass,Pass,6.2027655223E-003,2.5204237384E-002,Pass,Pass
 Warmup Convergence Information,THERMAL ZONE 16,SizingPeriod: MONTREAL INT'L ANN HTG 99.6% CONDNS DB,4.2480369107E-002,0.2463078768,Pass,Pass,6.0432758415E-003,2.4600012085E-002,Pass,Pass
 Warmup Convergence Information,THERMAL ZONE 17,SizingPeriod: MONTREAL INT'L ANN HTG 99.6% CONDNS DB,4.3429817345E-002,0.2497139186,Pass,Pass,5.9752275291E-003,2.5474198391E-002,Pass,Pass
 Warmup Convergence Information,THERMAL ZONE 18,SizingPeriod: MONTREAL INT'L ANN HTG 99.6% CONDNS DB,4.2180231845E-002,0.2463703620,Pass,Pass,5.1170631790E-003,2.1028561352E-002,Pass,Pass
 Warmup Convergence Information,THERMAL ZONE 19,SizingPeriod: MONTREAL INT'L ANN HTG 99.6% CONDNS DB,4.2274084684E-002,0.2461405648,Pass,Pass,5.3176161501E-003,2.1722761179E-002,Pass,Pass
 Warmup Convergence Information,THERMAL ZONE 2,SizingPeriod: MONTREAL INT'L ANN HTG 99.6% CONDNS DB,4.2456934325E-002,0.2432074521,Pass,Pass,6.3500453583E-003,2.8636659459E-002,Pass,Pass
 Warmup Convergence Information,THERMAL ZONE 20,SizingPeriod: MONTREAL INT'L ANN HTG 99.6% CONDNS DB,4.2203325613E-002,0.2463037381,Pass,Pass,5.1391265240E-003,2.1109265879E-002,Pass,Pass
 Warmup Convergence Information,THERMAL ZONE 21,SizingPeriod: MONTREAL INT'L ANN HTG 99.6% CONDNS DB,4.3828557303E-002,0.2445516172,Pass,Pass,4.8377728855E-003,2.0088240633E-002,Pass,Pass
 Warmup Convergence Information,THERMAL ZONE 22,SizingPeriod: MONTREAL INT'L ANN HTG 99.6% CONDNS DB,4.2254859870E-002,0.2461963026,Pass,Pass,5.2995708890E-003,2.1661789442E-002,Pass,Pass
 Warmup Convergence Information,THERMAL ZONE 23,SizingPeriod: MONTREAL INT'L ANN HTG 99.6% CONDNS DB,4.2224768756E-002,0.2462422220,Pass,Pass,5.1601194179E-003,2.1184073279E-002,Pass,Pass
 Warmup Convergence Information,THERMAL ZONE 24,SizingPeriod: MONTREAL INT'L ANN HTG 99.6% CONDNS DB,4.2408201356E-002,0.2459972267,Pass,Pass,5.5897157421E-003,2.3742577089E-002,Pass,Pass
 Warmup Convergence Information,THERMAL ZONE 3,SizingPeriod: MONTREAL INT'L ANN HTG 99.6% CONDNS DB,4.4591779982E-002,0.2278399658,Pass,Pass,1.7451928702E-002,7.5226747636E-002,Pass,Pass
 Warmup Convergence Information,THERMAL ZONE 5,SizingPeriod: MONTREAL INT'L ANN HTG 99.6% CONDNS DB,4.2460054986E-002,0.2463607594,Pass,Pass,6.0051974251E-003,2.4451935462E-002,Pass,Pass
 Warmup Convergence Information,THERMAL ZONE 6,SizingPeriod: MONTREAL INT'L ANN HTG 99.6% CONDNS DB,4.5368850826E-002,0.2413865740,Pass,Pass,1.0612978505E-002,4.3960237376E-002,Pass,Pass
 Warmup Convergence Information,THERMAL ZONE 7,SizingPeriod: MONTREAL INT'L ANN HTG 99.6% CONDNS DB,4.5337671678E-002,0.2416686755,Pass,Pass,1.0581526829E-002,4.3853966297E-002,Pass,Pass
 Warmup Convergence Information,THERMAL ZONE 8,SizingPeriod: MONTREAL INT'L ANN HTG 99.6% CONDNS DB,4.4599154439E-002,0.2275580058,Pass,Pass,1.7640907435E-002,7.5996533815E-002,Pass,Pass
 Warmup Convergence Information,THERMAL ZONE 9,SizingPeriod: MONTREAL INT'L ANN HTG 99.6% CONDNS DB,4.5367650132E-002,0.2407636893,Pass,Pass,1.0737418286E-002,4.4506766509E-002,Pass,Pass
Environment,MONTREAL INT'L ANN HTG WIND 99.6% CONDNS WS=>MCDB,SizingPeriod:DesignDay,01/21,01/21,WinterDesignDay,1,N/A,N/A,N/A,N/A,N/A,N/A,Clark and Allen
Environment:Daylight Saving,No,SizingPeriod:DesignDay
Environment:Design Day Data,-5.30,0.00,DefaultMultipliers,Wetbulb,-5.30,{C},100893,260,12.9,0.00,No,No
Environment:Design Day Misc, 21,1229.0,0.1415,5.7310E-002,1.0,-11.15,-20.1,ASHRAEClearSky
Environment:WarmupDays,  5
 Warmup Convergence Information,THERMAL ZONE 1,SizingPeriod: MONTREAL INT'L ANN HTG WIND 99.6% CONDNS WS=>MCDB,4.1726823015E-002,0.2211740703,Pass,Pass,4.5277293538E-002,0.2696759577,Pass,Pass
 Warmup Convergence Information,THERMAL ZONE 10,SizingPeriod: MONTREAL INT'L ANN HTG WIND 99.6% CONDNS WS=>MCDB,4.2473354251E-002,0.2397655077,Pass,Pass,1.5042146908E-002,6.8040929434E-002,Pass,Pass
 Warmup Convergence Information,THERMAL ZONE 11,SizingPeriod: MONTREAL INT'L ANN HTG WIND 99.6% CONDNS WS=>MCDB,4.1539588174E-002,0.2543805415,Pass,Pass,7.6836307177E-003,3.2813863993E-002,Pass,Pass
 Warmup Convergence Information,THERMAL ZONE 12,SizingPeriod: MONTREAL INT'L ANN HTG WIND 99.6% CONDNS WS=>MCDB,4.1560595953E-002,0.2529422446,Pass,Pass,7.6045223860E-003,3.2498754425E-002,Pass,Pass
 Warmup Convergence Information,THERMAL ZONE 13,SizingPeriod: MONTREAL INT'L ANN HTG WIND 99.6% CONDNS WS=>MCDB,4.1414108935E-002,0.2524125558,Pass,Pass,5.9782409196E-003,2.5812249448E-002,Pass,Pass
 Warmup Convergence Information,THERMAL ZONE 14,SizingPeriod: MONTREAL INT'L ANN HTG WIND 99.6% CONDNS WS=>MCDB,4.2370933358E-002,0.2432123361,Pass,Pass,6.4207972338E-003,2.7912957996E-002,Pass,Pass
 Warmup Convergence Information,THERMAL ZONE 15,SizingPeriod: MONTREAL INT'L ANN HTG WIND 99.6% CONDNS WS=>MCDB,4.1556661360E-002,0.2523078042,Pass,Pass,7.7178899745E-003,3.2954534312E-002,Pass,Pass
 Warmup Convergence Information,THERMAL ZONE 16,SizingPeriod: MONTREAL INT'L ANN HTG WIND 99.6% CONDNS WS=>MCDB,4.1592219324E-002,0.2531360630,Pass,Pass,7.5710778809E-003,3.2363479801E-002,Pass,Pass
 Warmup Convergence Information,THERMAL ZONE 17,SizingPeriod: MONTREAL INT'L ANN HTG WIND 99.6% CONDNS WS=>MCDB,4.3129997428E-002,0.2520194719,Pass,Pass,7.4193993918E-003,3.2976483803E-002,Pass,Pass
 Warmup Convergence Information,THERMAL ZONE 18,SizingPeriod: MONTREAL INT'L ANN HTG WIND 99.6% CONDNS WS=>MCDB,4.1446408638E-002,0.2500607393,Pass,Pass,5.9430148769E-003,2.5675598304E-002,Pass,Pass
 Warmup Convergence Information,THERMAL ZONE 19,SizingPeriod: MONTREAL INT'L ANN HTG WIND 99.6% CONDNS WS=>MCDB,4.1386702718E-002,0.2517596549,Pass,Pass,6.0903249332E-003,2.6203725012E-002,Pass,Pass
 Warmup Convergence Information,THERMAL ZONE 2,SizingPeriod: MONTREAL INT'L ANN HTG WIND 99.6% CONDNS WS=>MCDB,4.2506439033E-002,0.2438960335,Pass,Pass,8.9571724114E-003,4.1643917068E-002,Pass,Pass
 Warmup Convergence Information,THERMAL ZONE 20,SizingPeriod: MONTREAL INT'L ANN HTG WIND 99.6% CONDNS WS=>MCDB,4.1429234721E-002,0.2523825853,Pass,Pass,5.9651404287E-003,2.5763362757E-002,Pass,Pass
 Warmup Convergence Information,THERMAL ZONE 21,SizingPeriod: MONTREAL INT'L ANN HTG WIND 99.6% CONDNS WS=>MCDB,4.3711364461E-002,0.2443651033,Pass,Pass,5.5779854891E-003,2.4409278668E-002,Pass,Pass
 Warmup Convergence Information,THERMAL ZONE 22,SizingPeriod: MONTREAL INT'L ANN HTG WIND 99.6% CONDNS WS=>MCDB,4.1396549336E-002,0.2519128901,Pass,Pass,6.0784688536E-003,2.6158061430E-002,Pass,Pass
 Warmup Convergence Information,THERMAL ZONE 23,SizingPeriod: MONTREAL INT'L ANN HTG WIND 99.6% CONDNS WS=>MCDB,4.1413951040E-002,0.2524270972,Pass,Pass,5.9816972785E-003,2.5827413957E-002,Pass,Pass
 Warmup Convergence Information,THERMAL ZONE 24,SizingPeriod: MONTREAL INT'L ANN HTG WIND 99.6% CONDNS WS=>MCDB,4.1443133735E-002,0.2501878709,Pass,Pass,7.9981478045E-003,3.4953354860E-002,Pass,Pass
 Warmup Convergence Information,THERMAL ZONE 3,SizingPeriod: MONTREAL INT'L ANN HTG WIND 99.6% CONDNS WS=>MCDB,4.3131439475E-002,0.2288061334,Pass,Pass,2.5299688321E-002,0.1283284755,Pass,Pass
 Warmup Convergence Information,THERMAL ZONE 5,SizingPeriod: MONTREAL INT'L ANN HTG WIND 99.6% CONDNS WS=>MCDB,4.1614999809E-002,0.2533034088,Pass,Pass,7.5199640809E-003,3.2148540451E-002,Pass,Pass
 Warmup Convergence Information,THERMAL ZONE 6,SizingPeriod: MONTREAL INT'L ANN HTG WIND 99.6% CONDNS WS=>MCDB,4.2419837516E-002,0.2403106490,Pass,Pass,1.4600861690E-002,6.5671897089E-002,Pass,Pass
 Warmup Convergence Information,THERMAL ZONE 7,SizingPeriod: MONTREAL INT'L ANN HTG WIND 99.6% CONDNS WS=>MCDB,4.2398199340E-002,0.2404616381,Pass,Pass,1.4629711204E-002,6.5882749428E-002,Pass,Pass
 Warmup Convergence Information,THERMAL ZONE 8,SizingPeriod: MONTREAL INT'L ANN HTG WIND 99.6% CONDNS WS=>MCDB,4.3239070928E-002,0.2288253203,Pass,Pass,2.5971948821E-002,0.1325593174,Pass,Pass
 Warmup Convergence Information,THERMAL ZONE 9,SizingPeriod: MONTREAL INT'L ANN HTG WIND 99.6% CONDNS WS=>MCDB,4.2462580145E-002,0.2398940368,Pass,Pass,1.4895926230E-002,6.7220695055E-002,Pass,Pass
Environment,MONTREAL INT'L ANN HUM_N 99.6% CONDNS DP=>MCDB,SizingPeriod:DesignDay,01/21,01/21,WinterDesignDay,1,N/A,N/A,N/A,N/A,N/A,N/A,Clark and Allen
Environment:Daylight Saving,No,SizingPeriod:DesignDay
Environment:Design Day Data,-23.00,0.00,DefaultMultipliers,Dewpoint,-30.50,{C},100893,260,3.9,0.00,No,No
Environment:Design Day Misc, 21,1229.0,0.1415,5.7310E-002,1.0,-11.15,-20.1,ASHRAEClearSky
Environment:WarmupDays,  5
 Warmup Convergence Information,THERMAL ZONE 1,SizingPeriod: MONTREAL INT'L ANN HUM_N 99.6% CONDNS DP=>MCDB,4.1796519993E-002,0.2247910814,Pass,Pass,2.3834054444E-002,0.1214521759,Pass,Pass
 Warmup Convergence Information,THERMAL ZONE 10,SizingPeriod: MONTREAL INT'L ANN HUM_N 99.6% CONDNS DP=>MCDB,4.5342729043E-002,0.2414581889,Pass,Pass,1.0936718776E-002,4.5453987487E-002,Pass,Pass
 Warmup Convergence Information,THERMAL ZONE 11,SizingPeriod: MONTREAL INT'L ANN HUM_N 99.6% CONDNS DP=>MCDB,4.2473105633E-002,0.2466546152,Pass,Pass,6.2519243247E-003,2.5422893102E-002,Pass,Pass
 Warmup Convergence Information,THERMAL ZONE 12,SizingPeriod: MONTREAL INT'L ANN HUM_N 99.6% CONDNS DP=>MCDB,4.2464579421E-002,0.2466509547,Pass,Pass,6.1564359990E-003,2.5068072252E-002,Pass,Pass
 Warmup Convergence Information,THERMAL ZONE 13,SizingPeriod: MONTREAL INT'L ANN HUM_N 99.6% CONDNS DP=>MCDB,4.2188744235E-002,0.2467785595,Pass,Pass,5.2280978018E-003,2.1465812600E-002,Pass,Pass
 Warmup Convergence Information,THERMAL ZONE 14,SizingPeriod: MONTREAL INT'L ANN HUM_N 99.6% CONDNS DP=>MCDB,4.1684565098E-002,0.2431716826,Pass,Pass,5.2202262965E-003,2.1584025414E-002,Pass,Pass
 Warmup Convergence Information,THERMAL ZONE 15,SizingPeriod: MONTREAL INT'L ANN HUM_N 99.6% CONDNS DP=>MCDB,4.2490340868E-002,0.2466007111,Pass,Pass,6.2843898230E-003,2.5550068640E-002,Pass,Pass
 Warmup Convergence Information,THERMAL ZONE 16,SizingPeriod: MONTREAL INT'L ANN HUM_N 99.6% CONDNS DP=>MCDB,4.2446160971E-002,0.2467094922,Pass,Pass,6.1224538690E-003,2.4935481699E-002,Pass,Pass
 Warmup Convergence Information,THERMAL ZONE 17,SizingPeriod: MONTREAL INT'L ANN HUM_N 99.6% CONDNS DP=>MCDB,4.3436383469E-002,0.2500426580,Pass,Pass,6.0516066453E-003,2.5816312723E-002,Pass,Pass
 Warmup Convergence Information,THERMAL ZONE 18,SizingPeriod: MONTREAL INT'L ANN HUM_N 99.6% CONDNS DP=>MCDB,4.2144524445E-002,0.2469236935,Pass,Pass,5.1845793542E-003,2.1311749028E-002,Pass,Pass
 Warmup Convergence Information,THERMAL ZONE 19,SizingPeriod: MONTREAL INT'L ANN HUM_N 99.6% CONDNS DP=>MCDB,4.2238561167E-002,0.2466602965,Pass,Pass,5.3887150164E-003,2.2019979881E-002,Pass,Pass
 Warmup Convergence Information,THERMAL ZONE 2,SizingPeriod: MONTREAL INT'L ANN HUM_N 99.6% CONDNS DP=>MCDB,4.2442654840E-002,0.2434804097,Pass,Pass,6.4355425181E-003,2.9034071368E-002,Pass,Pass
 Warmup Convergence Information,THERMAL ZONE 20,SizingPeriod: MONTREAL INT'L ANN HUM_N 99.6% CONDNS DP=>MCDB,4.2167590601E-002,0.2468508897,Pass,Pass,5.2079738289E-003,2.1394862438E-002,Pass,Pass
 Warmup Convergence Information,THERMAL ZONE 21,SizingPeriod: MONTREAL INT'L ANN HUM_N 99.6% CONDNS DP=>MCDB,4.3845358940E-002,0.2445607529,Pass,Pass,4.9018997440E-003,2.0359679038E-002,Pass,Pass
 Warmup Convergence Information,THERMAL ZONE 22,SizingPeriod: MONTREAL INT'L ANN HUM_N 99.6% CONDNS DP=>MCDB,4.2219423922E-002,0.2467253259,Pass,Pass,5.3715303068E-003,2.1959308502E-002,Pass,Pass
 Warmup Convergence Information,THERMAL ZONE 23,SizingPeriod: MONTREAL INT'L ANN HUM_N 99.6% CONDNS DP=>MCDB,4.2188973352E-002,0.2467803593,Pass,Pass,5.2292546921E-003,2.1470277211E-002,Pass,Pass
 Warmup Convergence Information,THERMAL ZONE 24,SizingPeriod: MONTREAL INT'L ANN HUM_N 99.6% CONDNS DP=>MCDB,4.2374269957E-002,0.2464428172,Pass,Pass,5.6630816624E-003,2.4067297933E-002,Pass,Pass
 Warmup Convergence Information,THERMAL ZONE 3,SizingPeriod: MONTREAL INT'L ANN HUM_N 99.6% CONDNS DP=>MCDB,4.4635895816E-002,0.2286221093,Pass,Pass,1.7706552578E-002,7.6610406938E-002,Pass,Pass
 Warmup Convergence Information,THERMAL ZONE 5,SizingPeriod: MONTREAL INT'L ANN HUM_N 99.6% CONDNS DP=>MCDB,4.2425832468E-002,0.2467685007,Pass,Pass,6.0834805940E-003,2.4783565177E-002,Pass,Pass
 Warmup Convergence Information,THERMAL ZONE 6,SizingPeriod: MONTREAL INT'L ANN HUM_N 99.6% CONDNS DP=>MCDB,4.5290810499E-002,0.2421134988,Pass,Pass,1.0767950998E-002,4.4685114211E-002,Pass,Pass
 Warmup Convergence Information,THERMAL ZONE 7,SizingPeriod: MONTREAL INT'L ANN HUM_N 99.6% CONDNS DP=>MCDB,4.5259905561E-002,0.2424015578,Pass,Pass,1.0735004838E-002,4.4572076115E-002,Pass,Pass
 Warmup Convergence Information,THERMAL ZONE 8,SizingPeriod: MONTREAL INT'L ANN HUM_N 99.6% CONDNS DP=>MCDB,4.4640247674E-002,0.2283149168,Pass,Pass,1.7895064297E-002,7.7382057542E-002,Pass,Pass
 Warmup Convergence Information,THERMAL ZONE 9,SizingPeriod: MONTREAL INT'L ANN HUM_N 99.6% CONDNS DP=>MCDB,4.5335331781E-002,0.2415912041,Pass,Pass,1.0894232823E-002,4.5238674169E-002,Pass,Pass
Environment,RUN PERIOD 1,WeatherFileRunPeriod,01/01/2006,12/31/2006,Sunday,365,Use RunPeriod Specified Day,No,No,No,Yes,Yes,Clark and Allen
Environment:Daylight Saving,No,RunPeriod Object
Environment:WarmupDays,  8
 Warmup Convergence Information,THERMAL ZONE 1,RunPeriod: RUN PERIOD 1,3.7704422973E-002,0.2012204019,Pass,Pass,9.7187029732E-002,0.8938553754,Pass,Pass
 Warmup Convergence Information,THERMAL ZONE 10,RunPeriod: RUN PERIOD 1,4.6673563744E-002,0.2453809119,Pass,Pass,0.3885194529,2.8751001647,Pass,Pass
 Warmup Convergence Information,THERMAL ZONE 11,RunPeriod: RUN PERIOD 1,4.3626145403E-002,0.3011760813,Pass,Pass,4.3515280017E-002,0.1112369367,Pass,Pass
 Warmup Convergence Information,THERMAL ZONE 12,RunPeriod: RUN PERIOD 1,4.3541160929E-002,0.3007988043,Pass,Pass,5.0435791873E-002,0.1132003422,Pass,Pass
 Warmup Convergence Information,THERMAL ZONE 13,RunPeriod: RUN PERIOD 1,4.3443100427E-002,0.3164606291,Pass,Pass,4.4280339447E-002,7.4925074148E-002,Pass,Pass
 Warmup Convergence Information,THERMAL ZONE 14,RunPeriod: RUN PERIOD 1,4.3734675327E-002,0.3194828496,Pass,Pass,3.1219285361E-002,7.3066909970E-002,Pass,Pass
 Warmup Convergence Information,THERMAL ZONE 15,RunPeriod: RUN PERIOD 1,4.3567257592E-002,0.2993640861,Pass,Pass,5.3822710318E-002,0.1183848880,Pass,Pass
 Warmup Convergence Information,THERMAL ZONE 16,RunPeriod: RUN PERIOD 1,4.3546329558E-002,0.3000963347,Pass,Pass,5.1768270884E-002,0.1167370087,Pass,Pass
 Warmup Convergence Information,THERMAL ZONE 17,RunPeriod: RUN PERIOD 1,4.3120196661E-002,0.3075521287,Pass,Pass,3.2380671689E-002,8.8072720089E-002,Pass,Pass
 Warmup Convergence Information,THERMAL ZONE 18,RunPeriod: RUN PERIOD 1,4.3426217159E-002,0.3162942954,Pass,Pass,4.6536593892E-002,7.6148799843E-002,Pass,Pass
 Warmup Convergence Information,THERMAL ZONE 19,RunPeriod: RUN PERIOD 1,4.3429553902E-002,0.3156141770,Pass,Pass,4.6836778032E-002,7.7828244917E-002,Pass,Pass
 Warmup Convergence Information,THERMAL ZONE 2,RunPeriod: RUN PERIOD 1,4.2451491399E-002,0.2905454718,Pass,Pass,3.5802856001E-002,0.1426029888,Pass,Pass
 Warmup Convergence Information,THERMAL ZONE 20,RunPeriod: RUN PERIOD 1,4.3478004590E-002,0.3160399118,Pass,Pass,4.3685971924E-002,7.3787487514E-002,Pass,Pass
 Warmup Convergence Information,THERMAL ZONE 21,RunPeriod: RUN PERIOD 1,4.4670188145E-002,0.3314956993,Pass,Pass,3.0726469423E-002,5.7636809230E-002,Pass,Pass
 Warmup Convergence Information,THERMAL ZONE 22,RunPeriod: RUN PERIOD 1,4.3507742652E-002,0.3161284627,Pass,Pass,3.8859078710E-002,7.3294099174E-002,Pass,Pass
 Warmup Convergence Information,THERMAL ZONE 23,RunPeriod: RUN PERIOD 1,4.3493568658E-002,0.3167094549,Pass,Pass,3.7039465377E-002,7.1353340934E-002,Pass,Pass
 Warmup Convergence Information,THERMAL ZONE 24,RunPeriod: RUN PERIOD 1,4.3606949624E-002,0.3072638891,Pass,Pass,4.9879638894E-002,0.1045285603,Pass,Pass
 Warmup Convergence Information,THERMAL ZONE 3,RunPeriod: RUN PERIOD 1,3.6474819437E-002,0.1569077994,Pass,Pass,7.5303163137E-002,0.2939192956,Pass,Pass
 Warmup Convergence Information,THERMAL ZONE 5,RunPeriod: RUN PERIOD 1,4.3502377553E-002,0.3007230961,Pass,Pass,5.4730945719E-002,0.1172134900,Pass,Pass
 Warmup Convergence Information,THERMAL ZONE 6,RunPeriod: RUN PERIOD 1,4.6488795977E-002,0.2620989839,Pass,Pass,0.6466258560,5.1858607985,Pass,Pass
 Warmup Convergence Information,THERMAL ZONE 7,RunPeriod: RUN PERIOD 1,4.6564225595E-002,0.2488296862,Pass,Pass,0.5383648775,3.7420958442,Pass,Pass
 Warmup Convergence Information,THERMAL ZONE 8,RunPeriod: RUN PERIOD 1,3.2964164141E-002,0.1385329352,Pass,Pass,0.1047433152,0.2116123095,Pass,Pass
 Warmup Convergence Information,THERMAL ZONE 9,RunPeriod: RUN PERIOD 1,4.6597917751E-002,0.2621692837,Pass,Pass,0.5232883494,4.4835012765,Pass,Pass
Environment,MONTREAL INT'L ANN CLG .4% CONDNS DB=>MWB HVAC Sizing Pass 1,SizingPeriod:DesignDay,07/21,07/21,SummerDesignDay,1,N/A,N/A,N/A,N/A,N/A,N/A,Clark and Allen
Environment:Daylight Saving,No,SizingPeriod:DesignDay
Environment,MONTREAL INT'L ANN CLG .4% CONDNS DP=>MDB HVAC Sizing Pass 1,SizingPeriod:DesignDay,07/21,07/21,SummerDesignDay,1,N/A,N/A,N/A,N/A,N/A,N/A,Clark and Allen
Environment:Daylight Saving,No,SizingPeriod:DesignDay
Environment,MONTREAL INT'L ANN CLG .4% CONDNS ENTH=>MDB HVAC Sizing Pass 1,SizingPeriod:DesignDay,07/21,07/21,SummerDesignDay,1,N/A,N/A,N/A,N/A,N/A,N/A,Clark and Allen
Environment:Daylight Saving,No,SizingPeriod:DesignDay
Environment,MONTREAL INT'L ANN CLG .4% CONDNS WB=>MDB HVAC Sizing Pass 1,SizingPeriod:DesignDay,07/21,07/21,SummerDesignDay,1,N/A,N/A,N/A,N/A,N/A,N/A,Clark and Allen
Environment:Daylight Saving,No,SizingPeriod:DesignDay
Environment,MONTREAL INT'L ANN HTG 99.6% CONDNS DB HVAC Sizing Pass 1,SizingPeriod:DesignDay,01/21,01/21,WinterDesignDay,1,N/A,N/A,N/A,N/A,N/A,N/A,Clark and Allen
Environment:Daylight Saving,No,SizingPeriod:DesignDay
Environment,MONTREAL INT'L ANN HTG WIND 99.6% CONDNS WS=>MCDB HVAC Sizing Pass 1,SizingPeriod:DesignDay,01/21,01/21,WinterDesignDay,1,N/A,N/A,N/A,N/A,N/A,N/A,Clark and Allen
Environment:Daylight Saving,No,SizingPeriod:DesignDay
Environment,MONTREAL INT'L ANN HUM_N 99.6% CONDNS DP=>MCDB HVAC Sizing Pass 1,SizingPeriod:DesignDay,01/21,01/21,WinterDesignDay,1,N/A,N/A,N/A,N/A,N/A,N/A,Clark and Allen
Environment:Daylight Saving,No,SizingPeriod:DesignDay
! <Program Control Information:Threads/Parallel Sims>, Threading Supported,Maximum Number of Threads, Env Set Threads (OMP_NUM_THREADS), EP Env Set Threads (EP_OMP_NUM_THREADS), IDF Set Threads, Number of Threads Used (Interior Radiant Exchange), Number Nominal Surfaces, Number Parallel Sims
Program Control:Threads/Parallel Sims, No,1, N/A, N/A, N/A, N/A, N/A, N/A
End of Data
