{
   "completed_at" : "20240717T110451Z",
   "completed_status" : "Success",
   "created_at" : "20240716T132833Z",
   "current_step" : 5,
   "eplusout_err" : "Program Version,EnergyPlus, Version 23.2.0-7636e6b3e9, YMD=2024.07.17 07:03,\n   ************* Beginning Zone Sizing Calculations\n   ** Warning ** ProcessScheduleInput: Schedule:Day:Interval=\"FRACTION LATENT DEFAULTDAY - 0.05\", Blank Schedule Type Limits Name input -- will not be validated.\n   ** Warning ** ProcessScheduleInput: Schedule:Day:Interval=\"FRACTION SENSIBLE DEFAULTDAY - 0.2\", Blank Schedule Type Limits Name input -- will not be validated.\n   ** Warning ** ProcessScheduleInput: Schedule:Year=\"FRACTION SENSIBLE - 0.05\", Blank Schedule Type Limits Name input -- will not be validated.\n   ** Warning ** ProcessScheduleInput: Schedule:Year=\"FRACTION SENSIBLE - 0.2\", Blank Schedule Type Limits Name input -- will not be validated.\n   ** Warning ** ProcessScheduleInput: Schedule:Constant=\"ALWAYS OFF DISCRETE\", Blank Schedule Type Limits Name input -- will not be validated.\n   ** Warning ** ProcessScheduleInput: Schedule:Constant=\"ALWAYS ON CONTINUOUS\", Blank Schedule Type Limits Name input -- will not be validated.\n   ** Warning ** GetHTSurfaceData: Surfaces with interface to Ground found but no \"Ground Temperatures\" were input.\n   **   ~~~   ** Found first in surface=SURFACE 21\n   **   ~~~   ** Defaults, constant throughout the year of (18.0) will be used.\n   ** Warning ** CheckUsedConstructions: There are 17 nominally unused constructions in input.\n   **   ~~~   ** For explicit details on each unused construction, use Output:Diagnostics,DisplayExtraWarnings;\n   ** Warning ** DetermineShadowingCombinations: There are 1 surfaces which are receiving surfaces and are non-convex.\n   **   ~~~   ** ...Shadowing values may be inaccurate. Check .shd report file for more surface shading details\n   **   ~~~   ** ...Add Output:Diagnostics,DisplayExtraWarnings; to see individual warnings for each surface.\n   ** Warning ** GetDXCoils: Coil:Heating:DX:SingleSpeed=\"PTHP 1 SPD DX HTG COIL\" curve values\n   **   ~~~   ** ... Heating Capacity Function of Temperature Curve Name = OS:CURVE:BIQUADRATIC 11 output is not equal to 1.0 (+ or - 10%) at rated conditions.\n   **   ~~~   ** ... Curve output at rated conditions = 0.786\n   ** Warning ** GetDXCoils: Coil:Heating:DX:SingleSpeed=\"PTHP 1 SPD DX HTG COIL 1\" curve values\n   **   ~~~   ** ... Heating Capacity Function of Temperature Curve Name = OS:CURVE:BIQUADRATIC 11 output is not equal to 1.0 (+ or - 10%) at rated conditions.\n   **   ~~~   ** ... Curve output at rated conditions = 0.786\n   ** Warning ** GetDXCoils: Coil:Heating:DX:SingleSpeed=\"PTHP 1 SPD DX HTG COIL 13\" curve values\n   **   ~~~   ** ... Heating Capacity Function of Temperature Curve Name = OS:CURVE:BIQUADRATIC 11 output is not equal to 1.0 (+ or - 10%) at rated conditions.\n   **   ~~~   ** ... Curve output at rated conditions = 0.786\n   ** Warning ** GetDXCoils: Coil:Heating:DX:SingleSpeed=\"PTHP 1 SPD DX HTG COIL 14\" curve values\n   **   ~~~   ** ... Heating Capacity Function of Temperature Curve Name = OS:CURVE:BIQUADRATIC 11 output is not equal to 1.0 (+ or - 10%) at rated conditions.\n   **   ~~~   ** ... Curve output at rated conditions = 0.786\n   ** Warning ** GetDXCoils: Coil:Heating:DX:SingleSpeed=\"PTHP 1 SPD DX HTG COIL 4\" curve values\n   **   ~~~   ** ... Heating Capacity Function of Temperature Curve Name = OS:CURVE:BIQUADRATIC 11 output is not equal to 1.0 (+ or - 10%) at rated conditions.\n   **   ~~~   ** ... Curve output at rated conditions = 0.786\n   ** Warning ** GetDXCoils: Coil:Heating:DX:SingleSpeed=\"PTHP 1 SPD DX HTG COIL 21\" curve values\n   **   ~~~   ** ... Heating Capacity Function of Temperature Curve Name = OS:CURVE:BIQUADRATIC 11 output is not equal to 1.0 (+ or - 10%) at rated conditions.\n   **   ~~~   ** ... Curve output at rated conditions = 0.786\n   ** Warning ** GetDXCoils: Coil:Heating:DX:SingleSpeed=\"PTHP 1 SPD DX HTG COIL 3\" curve values\n   **   ~~~   ** ... Heating Capacity Function of Temperature Curve Name = OS:CURVE:BIQUADRATIC 11 output is not equal to 1.0 (+ or - 10%) at rated conditions.\n   **   ~~~   ** ... Curve output at rated conditions = 0.786\n   ** Warning ** GetDXCoils: Coil:Heating:DX:SingleSpeed=\"PTHP 1 SPD DX HTG COIL 19\" curve values\n   **   ~~~   ** ... Heating Capacity Function of Temperature Curve Name = OS:CURVE:BIQUADRATIC 11 output is not equal to 1.0 (+ or - 10%) at rated conditions.\n   **   ~~~   ** ... Curve output at rated conditions = 0.786\n   ** Warning ** GetDXCoils: Coil:Heating:DX:SingleSpeed=\"PTHP 1 SPD DX HTG COIL 16\" curve values\n   **   ~~~   ** ... Heating Capacity Function of Temperature Curve Name = OS:CURVE:BIQUADRATIC 11 output is not equal to 1.0 (+ or - 10%) at rated conditions.\n   **   ~~~   ** ... Curve output at rated conditions = 0.786\n   ** Warning ** GetDXCoils: Coil:Heating:DX:SingleSpeed=\"PTHP 1 SPD DX HTG COIL 6\" curve values\n   **   ~~~   ** ... Heating Capacity Function of Temperature Curve Name = OS:CURVE:BIQUADRATIC 11 output is not equal to 1.0 (+ or - 10%) at rated conditions.\n   **   ~~~   ** ... Curve output at rated conditions = 0.786\n   ** Warning ** GetDXCoils: Coil:Heating:DX:SingleSpeed=\"PTHP 1 SPD DX HTG COIL 22\" curve values\n   **   ~~~   ** ... Heating Capacity Function of Temperature Curve Name = OS:CURVE:BIQUADRATIC 11 output is not equal to 1.0 (+ or - 10%) at rated conditions.\n   **   ~~~   ** ... Curve output at rated conditions = 0.786\n   ** Warning ** GetDXCoils: Coil:Heating:DX:SingleSpeed=\"PTHP 1 SPD DX HTG COIL 9\" curve values\n   **   ~~~   ** ... Heating Capacity Function of Temperature Curve Name = OS:CURVE:BIQUADRATIC 11 output is not equal to 1.0 (+ or - 10%) at rated conditions.\n   **   ~~~   ** ... Curve output at rated conditions = 0.786\n   ** Warning ** GetDXCoils: Coil:Heating:DX:SingleSpeed=\"PTHP 1 SPD DX HTG COIL 20\" curve values\n   **   ~~~   ** ... Heating Capacity Function of Temperature Curve Name = OS:CURVE:BIQUADRATIC 11 output is not equal to 1.0 (+ or - 10%) at rated conditions.\n   **   ~~~   ** ... Curve output at rated conditions = 0.786\n   ** Warning ** GetDXCoils: Coil:Heating:DX:SingleSpeed=\"PTHP 1 SPD DX HTG COIL 8\" curve values\n   **   ~~~   ** ... Heating Capacity Function of Temperature Curve Name = OS:CURVE:BIQUADRATIC 11 output is not equal to 1.0 (+ or - 10%) at rated conditions.\n   **   ~~~   ** ... Curve output at rated conditions = 0.786\n   ** Warning ** GetDXCoils: Coil:Heating:DX:SingleSpeed=\"PTHP 1 SPD DX HTG COIL 17\" curve values\n   **   ~~~   ** ... Heating Capacity Function of Temperature Curve Name = OS:CURVE:BIQUADRATIC 11 output is not equal to 1.0 (+ or - 10%) at rated conditions.\n   **   ~~~   ** ... Curve output at rated conditions = 0.786\n   ** Warning ** GetDXCoils: Coil:Heating:DX:SingleSpeed=\"PTHP 1 SPD DX HTG COIL 18\" curve values\n   **   ~~~   ** ... Heating Capacity Function of Temperature Curve Name = OS:CURVE:BIQUADRATIC 11 output is not equal to 1.0 (+ or - 10%) at rated conditions.\n   **   ~~~   ** ... Curve output at rated conditions = 0.786\n   ** Warning ** GetDXCoils: Coil:Heating:DX:SingleSpeed=\"PTHP 1 SPD DX HTG COIL 2\" curve values\n   **   ~~~   ** ... Heating Capacity Function of Temperature Curve Name = OS:CURVE:BIQUADRATIC 11 output is not equal to 1.0 (+ or - 10%) at rated conditions.\n   **   ~~~   ** ... Curve output at rated conditions = 0.786\n   ** Warning ** GetDXCoils: Coil:Heating:DX:SingleSpeed=\"PTHP 1 SPD DX HTG COIL 12\" curve values\n   **   ~~~   ** ... Heating Capacity Function of Temperature Curve Name = OS:CURVE:BIQUADRATIC 11 output is not equal to 1.0 (+ or - 10%) at rated conditions.\n   **   ~~~   ** ... Curve output at rated conditions = 0.786\n   ** Warning ** GetDXCoils: Coil:Heating:DX:SingleSpeed=\"PTHP 1 SPD DX HTG COIL 23\" curve values\n   **   ~~~   ** ... Heating Capacity Function of Temperature Curve Name = OS:CURVE:BIQUADRATIC 11 output is not equal to 1.0 (+ or - 10%) at rated conditions.\n   **   ~~~   ** ... Curve output at rated conditions = 0.786\n   ** Warning ** GetDXCoils: Coil:Heating:DX:SingleSpeed=\"PTHP 1 SPD DX HTG COIL 7\" curve values\n   **   ~~~   ** ... Heating Capacity Function of Temperature Curve Name = OS:CURVE:BIQUADRATIC 11 output is not equal to 1.0 (+ or - 10%) at rated conditions.\n   **   ~~~   ** ... Curve output at rated conditions = 0.786\n   ** Warning ** GetDXCoils: Coil:Heating:DX:SingleSpeed=\"PTHP 1 SPD DX HTG COIL 11\" curve values\n   **   ~~~   ** ... Heating Capacity Function of Temperature Curve Name = OS:CURVE:BIQUADRATIC 11 output is not equal to 1.0 (+ or - 10%) at rated conditions.\n   **   ~~~   ** ... Curve output at rated conditions = 0.786\n   ** Warning ** GetDXCoils: Coil:Heating:DX:SingleSpeed=\"PTHP 1 SPD DX HTG COIL 15\" curve values\n   **   ~~~   ** ... Heating Capacity Function of Temperature Curve Name = OS:CURVE:BIQUADRATIC 11 output is not equal to 1.0 (+ or - 10%) at rated conditions.\n   **   ~~~   ** ... Curve output at rated conditions = 0.786\n   ** Warning ** GetDXCoils: Coil:Heating:DX:SingleSpeed=\"PTHP 1 SPD DX HTG COIL 5\" curve values\n   **   ~~~   ** ... Heating Capacity Function of Temperature Curve Name = OS:CURVE:BIQUADRATIC 11 output is not equal to 1.0 (+ or - 10%) at rated conditions.\n   **   ~~~   ** ... Curve output at rated conditions = 0.786\n   ** Warning ** ZoneHVAC:PackagedTerminalHeatPump = PTHP\n   **   ~~~   ** Input for Heating Supply Air Flow Rate Method = SupplyAirFlowRate.\n   **   ~~~   ** Suspicious Heating Supply Air Flow Rate = 2.2204460E-016 when heating coil is present.\n   ** Warning ** ZoneHVAC:PackagedTerminalHeatPump = PTHP 1\n   **   ~~~   ** Input for Heating Supply Air Flow Rate Method = SupplyAirFlowRate.\n   **   ~~~   ** Suspicious Heating Supply Air Flow Rate = 2.2204460E-016 when heating coil is present.\n   ** Warning ** ZoneHVAC:PackagedTerminalHeatPump = PTHP 13\n   **   ~~~   ** Input for Heating Supply Air Flow Rate Method = SupplyAirFlowRate.\n   **   ~~~   ** Suspicious Heating Supply Air Flow Rate = 2.2204460E-016 when heating coil is present.\n   ** Warning ** ZoneHVAC:PackagedTerminalHeatPump = PTHP 14\n   **   ~~~   ** Input for Heating Supply Air Flow Rate Method = SupplyAirFlowRate.\n   **   ~~~   ** Suspicious Heating Supply Air Flow Rate = 2.2204460E-016 when heating coil is present.\n   ** Warning ** ZoneHVAC:PackagedTerminalHeatPump = PTHP 4\n   **   ~~~   ** Input for Heating Supply Air Flow Rate Method = SupplyAirFlowRate.\n   **   ~~~   ** Suspicious Heating Supply Air Flow Rate = 2.2204460E-016 when heating coil is present.\n   ** Warning ** ZoneHVAC:PackagedTerminalHeatPump = PTHP 21\n   **   ~~~   ** Input for Heating Supply Air Flow Rate Method = SupplyAirFlowRate.\n   **   ~~~   ** Suspicious Heating Supply Air Flow Rate = 2.2204460E-016 when heating coil is present.\n   ** Warning ** ZoneHVAC:PackagedTerminalHeatPump = PTHP 3\n   **   ~~~   ** Input for Heating Supply Air Flow Rate Method = SupplyAirFlowRate.\n   **   ~~~   ** Suspicious Heating Supply Air Flow Rate = 2.2204460E-016 when heating coil is present.\n   ** Warning ** ZoneHVAC:PackagedTerminalHeatPump = PTHP 19\n   **   ~~~   ** Input for Heating Supply Air Flow Rate Method = SupplyAirFlowRate.\n   **   ~~~   ** Suspicious Heating Supply Air Flow Rate = 2.2204460E-016 when heating coil is present.\n   ** Warning ** ZoneHVAC:PackagedTerminalHeatPump = PTHP 16\n   **   ~~~   ** Input for Heating Supply Air Flow Rate Method = SupplyAirFlowRate.\n   **   ~~~   ** Suspicious Heating Supply Air Flow Rate = 2.2204460E-016 when heating coil is present.\n   ** Warning ** ZoneHVAC:PackagedTerminalHeatPump = PTHP 6\n   **   ~~~   ** Input for Heating Supply Air Flow Rate Method = SupplyAirFlowRate.\n   **   ~~~   ** Suspicious Heating Supply Air Flow Rate = 2.2204460E-016 when heating coil is present.\n   ** Warning ** ZoneHVAC:PackagedTerminalHeatPump = PTHP 22\n   **   ~~~   ** Input for Heating Supply Air Flow Rate Method = SupplyAirFlowRate.\n   **   ~~~   ** Suspicious Heating Supply Air Flow Rate = 2.2204460E-016 when heating coil is present.\n   ** Warning ** ZoneHVAC:PackagedTerminalHeatPump = PTHP 9\n   **   ~~~   ** Input for Heating Supply Air Flow Rate Method = SupplyAirFlowRate.\n   **   ~~~   ** Suspicious Heating Supply Air Flow Rate = 2.2204460E-016 when heating coil is present.\n   ** Warning ** ZoneHVAC:PackagedTerminalHeatPump = PTHP 20\n   **   ~~~   ** Input for Heating Supply Air Flow Rate Method = SupplyAirFlowRate.\n   **   ~~~   ** Suspicious Heating Supply Air Flow Rate = 2.2204460E-016 when heating coil is present.\n   ** Warning ** ZoneHVAC:PackagedTerminalHeatPump = PTHP 8\n   **   ~~~   ** Input for Heating Supply Air Flow Rate Method = SupplyAirFlowRate.\n   **   ~~~   ** Suspicious Heating Supply Air Flow Rate = 2.2204460E-016 when heating coil is present.\n   ** Warning ** ZoneHVAC:PackagedTerminalHeatPump = PTHP 17\n   **   ~~~   ** Input for Heating Supply Air Flow Rate Method = SupplyAirFlowRate.\n   **   ~~~   ** Suspicious Heating Supply Air Flow Rate = 2.2204460E-016 when heating coil is present.\n   ** Warning ** ZoneHVAC:PackagedTerminalHeatPump = PTHP 18\n   **   ~~~   ** Input for Heating Supply Air Flow Rate Method = SupplyAirFlowRate.\n   **   ~~~   ** Suspicious Heating Supply Air Flow Rate = 2.2204460E-016 when heating coil is present.\n   ** Warning ** ZoneHVAC:PackagedTerminalHeatPump = PTHP 2\n   **   ~~~   ** Input for Heating Supply Air Flow Rate Method = SupplyAirFlowRate.\n   **   ~~~   ** Suspicious Heating Supply Air Flow Rate = 2.2204460E-016 when heating coil is present.\n   ** Warning ** ZoneHVAC:PackagedTerminalHeatPump = PTHP 12\n   **   ~~~   ** Input for Heating Supply Air Flow Rate Method = SupplyAirFlowRate.\n   **   ~~~   ** Suspicious Heating Supply Air Flow Rate = 2.2204460E-016 when heating coil is present.\n   ** Warning ** ZoneHVAC:PackagedTerminalHeatPump = PTHP 23\n   **   ~~~   ** Input for Heating Supply Air Flow Rate Method = SupplyAirFlowRate.\n   **   ~~~   ** Suspicious Heating Supply Air Flow Rate = 2.2204460E-016 when heating coil is present.\n   ** Warning ** ZoneHVAC:PackagedTerminalHeatPump = PTHP 7\n   **   ~~~   ** Input for Heating Supply Air Flow Rate Method = SupplyAirFlowRate.\n   **   ~~~   ** Suspicious Heating Supply Air Flow Rate = 2.2204460E-016 when heating coil is present.\n   ** Warning ** ZoneHVAC:PackagedTerminalHeatPump = PTHP 11\n   **   ~~~   ** Input for Heating Supply Air Flow Rate Method = SupplyAirFlowRate.\n   **   ~~~   ** Suspicious Heating Supply Air Flow Rate = 2.2204460E-016 when heating coil is present.\n   ** Warning ** ZoneHVAC:PackagedTerminalHeatPump = PTHP 15\n   **   ~~~   ** Input for Heating Supply Air Flow Rate Method = SupplyAirFlowRate.\n   **   ~~~   ** Suspicious Heating Supply Air Flow Rate = 2.2204460E-016 when heating coil is present.\n   ** Warning ** ZoneHVAC:PackagedTerminalHeatPump = PTHP 5\n   **   ~~~   ** Input for Heating Supply Air Flow Rate Method = SupplyAirFlowRate.\n   **   ~~~   ** Suspicious Heating Supply Air Flow Rate = 2.2204460E-016 when heating coil is present.\n   ************* Beginning Plant Sizing Calculations\n   ** Warning ** The Standard Ratings is calculated for Coil:Heating:DX:SingleSpeed = PTHP 1 SPD DX HTG COIL but not at the AHRI test condition due to curve out of bound.\n   **   ~~~   **  Review the Standard Ratings calculations in the Engineering Reference for this coil type. Also, use Output:Diagnostics, DisplayExtraWarnings for further guidance.\n   ** Warning ** Sizing: Coil:Heating:DX:SingleSpeed PTHP 1 SPD DX HTG COIL: Rated air volume flow rate per watt of rated total heating capacity is out of range.\n   **   ~~~   ** Min Rated Vol Flow Per Watt=[4.027E-005], Rated Vol Flow Per Watt=[444021783373594.812], Max Rated Vol Flow Per Watt=[6.041E-005]. See Input-Output Reference Manual for valid range.\n   ** Warning ** Coil:Heating:DX:SingleSpeed \"PTHP 1 SPD DX HTG COIL\" - Air volume flow rate per watt of rated total heating capacity is out of range at 442090642311178. m3/s/W.\n   **   ~~~   **  During Warmup, Environment=MONTREAL INT'L ANN CLG .4% CONDNS DB=>MWB, at Simulation time=07/21 00:00 - 00:10\n   **   ~~~   ** Expected range for VolumeFlowPerRatedTotalCapacity=[2.684E-005--8.056E-005]\n   **   ~~~   ** Possible causes include inconsistent air flow rates in system components or\n   **   ~~~   ** inconsistent supply air fan operation modes in coil and unitary system objects.\n   ** Warning ** The Standard Ratings is calculated for Coil:Heating:DX:SingleSpeed = PTHP 1 SPD DX HTG COIL 1 but not at the AHRI test condition due to curve out of bound.\n   **   ~~~   **  Review the Standard Ratings calculations in the Engineering Reference for this coil type. Also, use Output:Diagnostics, DisplayExtraWarnings for further guidance.\n   ** Warning ** Sizing: Coil:Heating:DX:SingleSpeed PTHP 1 SPD DX HTG COIL 1: Rated air volume flow rate per watt of rated total heating capacity is out of range.\n   **   ~~~   ** Min Rated Vol Flow Per Watt=[4.027E-005], Rated Vol Flow Per Watt=[741449256521667.875], Max Rated Vol Flow Per Watt=[6.041E-005]. See Input-Output Reference Manual for valid range.\n   ** Warning ** Coil:Heating:DX:SingleSpeed \"PTHP 1 SPD DX HTG COIL 1\" - Air volume flow rate per watt of rated total heating capacity is out of range at 738224542873413. m3/s/W.\n   **   ~~~   **  During Warmup, Environment=MONTREAL INT'L ANN CLG .4% CONDNS DB=>MWB, at Simulation time=07/21 00:00 - 00:10\n   **   ~~~   ** Expected range for VolumeFlowPerRatedTotalCapacity=[2.684E-005--8.056E-005]\n   **   ~~~   ** Possible causes include inconsistent air flow rates in system components or\n   **   ~~~   ** inconsistent supply air fan operation modes in coil and unitary system objects.\n   ** Warning ** The Standard Ratings is calculated for Coil:Heating:DX:SingleSpeed = PTHP 1 SPD DX HTG COIL 13 but not at the AHRI test condition due to curve out of bound.\n   **   ~~~   **  Review the Standard Ratings calculations in the Engineering Reference for this coil type. Also, use Output:Diagnostics, DisplayExtraWarnings for further guidance.\n   ** Warning ** Sizing: Coil:Heating:DX:SingleSpeed PTHP 1 SPD DX HTG COIL 13: Rated air volume flow rate per watt of rated total heating capacity is out of range.\n   **   ~~~   ** Min Rated Vol Flow Per Watt=[4.027E-005], Rated Vol Flow Per Watt=[14277249993756232.000], Max Rated Vol Flow Per Watt=[6.041E-005]. See Input-Output Reference Manual for valid range.\n   ** Warning ** Coil:Heating:DX:SingleSpeed \"PTHP 1 SPD DX HTG COIL 13\" - Air volume flow rate per watt of rated total heating capacity is out of range at 14215155329138990. m3/s/W.\n   **   ~~~   **  During Warmup, Environment=MONTREAL INT'L ANN CLG .4% CONDNS DB=>MWB, at Simulation time=07/21 00:00 - 00:10\n   **   ~~~   ** Expected range for VolumeFlowPerRatedTotalCapacity=[2.684E-005--8.056E-005]\n   **   ~~~   ** Possible causes include inconsistent air flow rates in system components or\n   **   ~~~   ** inconsistent supply air fan operation modes in coil and unitary system objects.\n   ** Warning ** The Standard Ratings is calculated for Coil:Heating:DX:SingleSpeed = PTHP 1 SPD DX HTG COIL 14 but not at the AHRI test condition due to curve out of bound.\n   **   ~~~   **  Review the Standard Ratings calculations in the Engineering Reference for this coil type. Also, use Output:Diagnostics, DisplayExtraWarnings for further guidance.\n   ** Warning ** Sizing: Coil:Heating:DX:SingleSpeed PTHP 1 SPD DX HTG COIL 14: Rated air volume flow rate per watt of rated total heating capacity is out of range.\n   **   ~~~   ** Min Rated Vol Flow Per Watt=[4.027E-005], Rated Vol Flow Per Watt=[14919656209721496.000], Max Rated Vol Flow Per Watt=[6.041E-005]. See Input-Output Reference Manual for valid range.\n   ** Warning ** Coil:Heating:DX:SingleSpeed \"PTHP 1 SPD DX HTG COIL 14\" - Air volume flow rate per watt of rated total heating capacity is out of range at 14854767589787518. m3/s/W.\n   **   ~~~   **  During Warmup, Environment=MONTREAL INT'L ANN CLG .4% CONDNS DB=>MWB, at Simulation time=07/21 00:00 - 00:10\n   **   ~~~   ** Expected range for VolumeFlowPerRatedTotalCapacity=[2.684E-005--8.056E-005]\n   **   ~~~   ** Possible causes include inconsistent air flow rates in system components or\n   **   ~~~   ** inconsistent supply air fan operation modes in coil and unitary system objects.\n   ** Warning ** The Standard Ratings is calculated for Coil:Heating:DX:SingleSpeed = PTHP 1 SPD DX HTG COIL 4 but not at the AHRI test condition due to curve out of bound.\n   **   ~~~   **  Review the Standard Ratings calculations in the Engineering Reference for this coil type. Also, use Output:Diagnostics, DisplayExtraWarnings for further guidance.\n   ** Warning ** Sizing: Coil:Heating:DX:SingleSpeed PTHP 1 SPD DX HTG COIL 4: Rated air volume flow rate per watt of rated total heating capacity is out of range.\n   **   ~~~   ** Min Rated Vol Flow Per Watt=[4.027E-005], Rated Vol Flow Per Watt=[1858989335460837.500], Max Rated Vol Flow Per Watt=[6.041E-005]. See Input-Output Reference Manual for valid range.\n   ** Warning ** Coil:Heating:DX:SingleSpeed \"PTHP 1 SPD DX HTG COIL 4\" - Air volume flow rate per watt of rated total heating capacity is out of range at 1850904212670177. m3/s/W.\n   **   ~~~   **  During Warmup, Environment=MONTREAL INT'L ANN CLG .4% CONDNS DB=>MWB, at Simulation time=07/21 00:00 - 00:10\n   **   ~~~   ** Expected range for VolumeFlowPerRatedTotalCapacity=[2.684E-005--8.056E-005]\n   **   ~~~   ** Possible causes include inconsistent air flow rates in system components or\n   **   ~~~   ** inconsistent supply air fan operation modes in coil and unitary system objects.\n   ** Warning ** The Standard Ratings is calculated for Coil:Heating:DX:SingleSpeed = PTHP 1 SPD DX HTG COIL 21 but not at the AHRI test condition due to curve out of bound.\n   **   ~~~   **  Review the Standard Ratings calculations in the Engineering Reference for this coil type. Also, use Output:Diagnostics, DisplayExtraWarnings for further guidance.\n   ** Warning ** Sizing: Coil:Heating:DX:SingleSpeed PTHP 1 SPD DX HTG COIL 21: Rated air volume flow rate per watt of rated total heating capacity is out of range.\n   **   ~~~   ** Min Rated Vol Flow Per Watt=[4.027E-005], Rated Vol Flow Per Watt=[29974949254525000.000], Max Rated Vol Flow Per Watt=[6.041E-005]. See Input-Output Reference Manual for valid range.\n   ** Warning ** Coil:Heating:DX:SingleSpeed \"PTHP 1 SPD DX HTG COIL 21\" - Air volume flow rate per watt of rated total heating capacity is out of range at 29844582102468928. m3/s/W.\n   **   ~~~   **  During Warmup, Environment=MONTREAL INT'L ANN CLG .4% CONDNS DB=>MWB, at Simulation time=07/21 00:00 - 00:10\n   **   ~~~   ** Expected range for VolumeFlowPerRatedTotalCapacity=[2.684E-005--8.056E-005]\n   **   ~~~   ** Possible causes include inconsistent air flow rates in system components or\n   **   ~~~   ** inconsistent supply air fan operation modes in coil and unitary system objects.\n   ** Warning ** The Standard Ratings is calculated for Coil:Heating:DX:SingleSpeed = PTHP 1 SPD DX HTG COIL 3 but not at the AHRI test condition due to curve out of bound.\n   **   ~~~   **  Review the Standard Ratings calculations in the Engineering Reference for this coil type. Also, use Output:Diagnostics, DisplayExtraWarnings for further guidance.\n   ** Warning ** Sizing: Coil:Heating:DX:SingleSpeed PTHP 1 SPD DX HTG COIL 3: Rated air volume flow rate per watt of rated total heating capacity is out of range.\n   **   ~~~   ** Min Rated Vol Flow Per Watt=[4.027E-005], Rated Vol Flow Per Watt=[14556783067763736.000], Max Rated Vol Flow Per Watt=[6.041E-005]. See Input-Output Reference Manual for valid range.\n   ** Warning ** Coil:Heating:DX:SingleSpeed \"PTHP 1 SPD DX HTG COIL 3\" - Air volume flow rate per watt of rated total heating capacity is out of range at 14493472656942740. m3/s/W.\n   **   ~~~   **  During Warmup, Environment=MONTREAL INT'L ANN CLG .4% CONDNS DB=>MWB, at Simulation time=07/21 00:00 - 00:10\n   **   ~~~   ** Expected range for VolumeFlowPerRatedTotalCapacity=[2.684E-005--8.056E-005]\n   **   ~~~   ** Possible causes include inconsistent air flow rates in system components or\n   **   ~~~   ** inconsistent supply air fan operation modes in coil and unitary system objects.\n   ** Warning ** The Standard Ratings is calculated for Coil:Heating:DX:SingleSpeed = PTHP 1 SPD DX HTG COIL 19 but not at the AHRI test condition due to curve out of bound.\n   **   ~~~   **  Review the Standard Ratings calculations in the Engineering Reference for this coil type. Also, use Output:Diagnostics, DisplayExtraWarnings for further guidance.\n   ** Warning ** Sizing: Coil:Heating:DX:SingleSpeed PTHP 1 SPD DX HTG COIL 19: Rated air volume flow rate per watt of rated total heating capacity is out of range.\n   **   ~~~   ** Min Rated Vol Flow Per Watt=[4.027E-005], Rated Vol Flow Per Watt=[14640543793069078.000], Max Rated Vol Flow Per Watt=[6.041E-005]. See Input-Output Reference Manual for valid range.\n   ** Warning ** Coil:Heating:DX:SingleSpeed \"PTHP 1 SPD DX HTG COIL 19\" - Air volume flow rate per watt of rated total heating capacity is out of range at 14576869089814442. m3/s/W.\n   **   ~~~   **  During Warmup, Environment=MONTREAL INT'L ANN CLG .4% CONDNS DB=>MWB, at Simulation time=07/21 00:00 - 00:10\n   **   ~~~   ** Expected range for VolumeFlowPerRatedTotalCapacity=[2.684E-005--8.056E-005]\n   **   ~~~   ** Possible causes include inconsistent air flow rates in system components or\n   **   ~~~   ** inconsistent supply air fan operation modes in coil and unitary system objects.\n   ** Warning ** The Standard Ratings is calculated for Coil:Heating:DX:SingleSpeed = PTHP 1 SPD DX HTG COIL 16 but not at the AHRI test condition due to curve out of bound.\n   **   ~~~   **  Review the Standard Ratings calculations in the Engineering Reference for this coil type. Also, use Output:Diagnostics, DisplayExtraWarnings for further guidance.\n   ** Warning ** Sizing: Coil:Heating:DX:SingleSpeed PTHP 1 SPD DX HTG COIL 16: Rated air volume flow rate per watt of rated total heating capacity is out of range.\n   **   ~~~   ** Min Rated Vol Flow Per Watt=[4.027E-005], Rated Vol Flow Per Watt=[15170136012614362.000], Max Rated Vol Flow Per Watt=[6.041E-005]. See Input-Output Reference Manual for valid range.\n   ** Warning ** Coil:Heating:DX:SingleSpeed \"PTHP 1 SPD DX HTG COIL 16\" - Air volume flow rate per watt of rated total heating capacity is out of range at 15104158005062962. m3/s/W.\n   **   ~~~   **  During Warmup, Environment=MONTREAL INT'L ANN CLG .4% CONDNS DB=>MWB, at Simulation time=07/21 00:00 - 00:10\n   **   ~~~   ** Expected range for VolumeFlowPerRatedTotalCapacity=[2.684E-005--8.056E-005]\n   **   ~~~   ** Possible causes include inconsistent air flow rates in system components or\n   **   ~~~   ** inconsistent supply air fan operation modes in coil and unitary system objects.\n   ** Warning ** The Standard Ratings is calculated for Coil:Heating:DX:SingleSpeed = PTHP 1 SPD DX HTG COIL 6 but not at the AHRI test condition due to curve out of bound.\n   **   ~~~   **  Review the Standard Ratings calculations in the Engineering Reference for this coil type. Also, use Output:Diagnostics, DisplayExtraWarnings for further guidance.\n   ** Warning ** Sizing: Coil:Heating:DX:SingleSpeed PTHP 1 SPD DX HTG COIL 6: Rated air volume flow rate per watt of rated total heating capacity is out of range.\n   **   ~~~   ** Min Rated Vol Flow Per Watt=[4.027E-005], Rated Vol Flow Per Watt=[1781122913308340.750], Max Rated Vol Flow Per Watt=[6.041E-005]. See Input-Output Reference Manual for valid range.\n   ** Warning ** Coil:Heating:DX:SingleSpeed \"PTHP 1 SPD DX HTG COIL 6\" - Air volume flow rate per watt of rated total heating capacity is out of range at 1773376447427843. m3/s/W.\n   **   ~~~   **  During Warmup, Environment=MONTREAL INT'L ANN CLG .4% CONDNS DB=>MWB, at Simulation time=07/21 00:00 - 00:10\n   **   ~~~   ** Expected range for VolumeFlowPerRatedTotalCapacity=[2.684E-005--8.056E-005]\n   **   ~~~   ** Possible causes include inconsistent air flow rates in system components or\n   **   ~~~   ** inconsistent supply air fan operation modes in coil and unitary system objects.\n   ** Warning ** The Standard Ratings is calculated for Coil:Heating:DX:SingleSpeed = PTHP 1 SPD DX HTG COIL 22 but not at the AHRI test condition due to curve out of bound.\n   **   ~~~   **  Review the Standard Ratings calculations in the Engineering Reference for this coil type. Also, use Output:Diagnostics, DisplayExtraWarnings for further guidance.\n   ** Warning ** Sizing: Coil:Heating:DX:SingleSpeed PTHP 1 SPD DX HTG COIL 22: Rated air volume flow rate per watt of rated total heating capacity is out of range.\n   **   ~~~   ** Min Rated Vol Flow Per Watt=[4.027E-005], Rated Vol Flow Per Watt=[1795857619065961.500], Max Rated Vol Flow Per Watt=[6.041E-005]. See Input-Output Reference Manual for valid range.\n   ** Warning ** Coil:Heating:DX:SingleSpeed \"PTHP 1 SPD DX HTG COIL 22\" - Air volume flow rate per watt of rated total heating capacity is out of range at 1788047068952670. m3/s/W.\n   **   ~~~   **  During Warmup, Environment=MONTREAL INT'L ANN CLG .4% CONDNS DB=>MWB, at Simulation time=07/21 00:00 - 00:10\n   **   ~~~   ** Expected range for VolumeFlowPerRatedTotalCapacity=[2.684E-005--8.056E-005]\n   **   ~~~   ** Possible causes include inconsistent air flow rates in system components or\n   **   ~~~   ** inconsistent supply air fan operation modes in coil and unitary system objects.\n   ** Warning ** The Standard Ratings is calculated for Coil:Heating:DX:SingleSpeed = PTHP 1 SPD DX HTG COIL 9 but not at the AHRI test condition due to curve out of bound.\n   **   ~~~   **  Review the Standard Ratings calculations in the Engineering Reference for this coil type. Also, use Output:Diagnostics, DisplayExtraWarnings for further guidance.\n   ** Warning ** Sizing: Coil:Heating:DX:SingleSpeed PTHP 1 SPD DX HTG COIL 9: Rated air volume flow rate per watt of rated total heating capacity is out of range.\n   **   ~~~   ** Min Rated Vol Flow Per Watt=[4.027E-005], Rated Vol Flow Per Watt=[5551605536889525.000], Max Rated Vol Flow Per Watt=[6.041E-005]. See Input-Output Reference Manual for valid range.\n   ** Warning ** Coil:Heating:DX:SingleSpeed \"PTHP 1 SPD DX HTG COIL 9\" - Air volume flow rate per watt of rated total heating capacity is out of range at 5527460475056809. m3/s/W.\n   **   ~~~   **  During Warmup, Environment=MONTREAL INT'L ANN CLG .4% CONDNS DB=>MWB, at Simulation time=07/21 00:00 - 00:10\n   **   ~~~   ** Expected range for VolumeFlowPerRatedTotalCapacity=[2.684E-005--8.056E-005]\n   **   ~~~   ** Possible causes include inconsistent air flow rates in system components or\n   **   ~~~   ** inconsistent supply air fan operation modes in coil and unitary system objects.\n   ** Warning ** The Standard Ratings is calculated for Coil:Heating:DX:SingleSpeed = PTHP 1 SPD DX HTG COIL 20 but not at the AHRI test condition due to curve out of bound.\n   **   ~~~   **  Review the Standard Ratings calculations in the Engineering Reference for this coil type. Also, use Output:Diagnostics, DisplayExtraWarnings for further guidance.\n   ** Warning ** Sizing: Coil:Heating:DX:SingleSpeed PTHP 1 SPD DX HTG COIL 20: Rated air volume flow rate per watt of rated total heating capacity is out of range.\n   **   ~~~   ** Min Rated Vol Flow Per Watt=[4.027E-005], Rated Vol Flow Per Watt=[1819814847901603.500], Max Rated Vol Flow Per Watt=[6.041E-005]. See Input-Output Reference Manual for valid range.\n   ** Warning ** Coil:Heating:DX:SingleSpeed \"PTHP 1 SPD DX HTG COIL 20\" - Air volume flow rate per watt of rated total heating capacity is out of range at 1811900102926532. m3/s/W.\n   **   ~~~   **  During Warmup, Environment=MONTREAL INT'L ANN CLG .4% CONDNS DB=>MWB, at Simulation time=07/21 00:00 - 00:10\n   **   ~~~   ** Expected range for VolumeFlowPerRatedTotalCapacity=[2.684E-005--8.056E-005]\n   **   ~~~   ** Possible causes include inconsistent air flow rates in system components or\n   **   ~~~   ** inconsistent supply air fan operation modes in coil and unitary system objects.\n   ** Warning ** The Standard Ratings is calculated for Coil:Heating:DX:SingleSpeed = PTHP 1 SPD DX HTG COIL 8 but not at the AHRI test condition due to curve out of bound.\n   **   ~~~   **  Review the Standard Ratings calculations in the Engineering Reference for this coil type. Also, use Output:Diagnostics, DisplayExtraWarnings for further guidance.\n   ** Warning ** Sizing: Coil:Heating:DX:SingleSpeed PTHP 1 SPD DX HTG COIL 8: Rated air volume flow rate per watt of rated total heating capacity is out of range.\n   **   ~~~   ** Min Rated Vol Flow Per Watt=[4.027E-005], Rated Vol Flow Per Watt=[3181536666814550.500], Max Rated Vol Flow Per Watt=[6.041E-005]. See Input-Output Reference Manual for valid range.\n   ** Warning ** Coil:Heating:DX:SingleSpeed \"PTHP 1 SPD DX HTG COIL 8\" - Air volume flow rate per watt of rated total heating capacity is out of range at 3167699516636490. m3/s/W.\n   **   ~~~   **  During Warmup, Environment=MONTREAL INT'L ANN CLG .4% CONDNS DB=>MWB, at Simulation time=07/21 00:00 - 00:10\n   **   ~~~   ** Expected range for VolumeFlowPerRatedTotalCapacity=[2.684E-005--8.056E-005]\n   **   ~~~   ** Possible causes include inconsistent air flow rates in system components or\n   **   ~~~   ** inconsistent supply air fan operation modes in coil and unitary system objects.\n   ** Warning ** The Standard Ratings is calculated for Coil:Heating:DX:SingleSpeed = PTHP 1 SPD DX HTG COIL 17 but not at the AHRI test condition due to curve out of bound.\n   **   ~~~   **  Review the Standard Ratings calculations in the Engineering Reference for this coil type. Also, use Output:Diagnostics, DisplayExtraWarnings for further guidance.\n   ** Warning ** Sizing: Coil:Heating:DX:SingleSpeed PTHP 1 SPD DX HTG COIL 17: Rated air volume flow rate per watt of rated total heating capacity is out of range.\n   **   ~~~   ** Min Rated Vol Flow Per Watt=[4.027E-005], Rated Vol Flow Per Watt=[1756584639006768.250], Max Rated Vol Flow Per Watt=[6.041E-005]. See Input-Output Reference Manual for valid range.\n   ** Warning ** Coil:Heating:DX:SingleSpeed \"PTHP 1 SPD DX HTG COIL 17\" - Air volume flow rate per watt of rated total heating capacity is out of range at 1748944895072984. m3/s/W.\n   **   ~~~   **  During Warmup, Environment=MONTREAL INT'L ANN CLG .4% CONDNS DB=>MWB, at Simulation time=07/21 00:00 - 00:10\n   **   ~~~   ** Expected range for VolumeFlowPerRatedTotalCapacity=[2.684E-005--8.056E-005]\n   **   ~~~   ** Possible causes include inconsistent air flow rates in system components or\n   **   ~~~   ** inconsistent supply air fan operation modes in coil and unitary system objects.\n   ** Warning ** The Standard Ratings is calculated for Coil:Heating:DX:SingleSpeed = PTHP 1 SPD DX HTG COIL 18 but not at the AHRI test condition due to curve out of bound.\n   **   ~~~   **  Review the Standard Ratings calculations in the Engineering Reference for this coil type. Also, use Output:Diagnostics, DisplayExtraWarnings for further guidance.\n   ** Warning ** Sizing: Coil:Heating:DX:SingleSpeed PTHP 1 SPD DX HTG COIL 18: Rated air volume flow rate per watt of rated total heating capacity is out of range.\n   **   ~~~   ** Min Rated Vol Flow Per Watt=[4.027E-005], Rated Vol Flow Per Watt=[1858683708284626.250], Max Rated Vol Flow Per Watt=[6.041E-005]. See Input-Output Reference Manual for valid range.\n   ** Warning ** Coil:Heating:DX:SingleSpeed \"PTHP 1 SPD DX HTG COIL 18\" - Air volume flow rate per watt of rated total heating capacity is out of range at 1850599914728728. m3/s/W.\n   **   ~~~   **  During Warmup, Environment=MONTREAL INT'L ANN CLG .4% CONDNS DB=>MWB, at Simulation time=07/21 00:00 - 00:10\n   **   ~~~   ** Expected range for VolumeFlowPerRatedTotalCapacity=[2.684E-005--8.056E-005]\n   **   ~~~   ** Possible causes include inconsistent air flow rates in system components or\n   **   ~~~   ** inconsistent supply air fan operation modes in coil and unitary system objects.\n   ** Warning ** The Standard Ratings is calculated for Coil:Heating:DX:SingleSpeed = PTHP 1 SPD DX HTG COIL 2 but not at the AHRI test condition due to curve out of bound.\n   **   ~~~   **  Review the Standard Ratings calculations in the Engineering Reference for this coil type. Also, use Output:Diagnostics, DisplayExtraWarnings for further guidance.\n   ** Warning ** Sizing: Coil:Heating:DX:SingleSpeed PTHP 1 SPD DX HTG COIL 2: Rated air volume flow rate per watt of rated total heating capacity is out of range.\n   **   ~~~   ** Min Rated Vol Flow Per Watt=[4.027E-005], Rated Vol Flow Per Watt=[1589714464444626.500], Max Rated Vol Flow Per Watt=[6.041E-005]. See Input-Output Reference Manual for valid range.\n   ** Warning ** Coil:Heating:DX:SingleSpeed \"PTHP 1 SPD DX HTG COIL 2\" - Air volume flow rate per watt of rated total heating capacity is out of range at 1582800472846102. m3/s/W.\n   **   ~~~   **  During Warmup, Environment=MONTREAL INT'L ANN CLG .4% CONDNS DB=>MWB, at Simulation time=07/21 00:00 - 00:10\n   **   ~~~   ** Expected range for VolumeFlowPerRatedTotalCapacity=[2.684E-005--8.056E-005]\n   **   ~~~   ** Possible causes include inconsistent air flow rates in system components or\n   **   ~~~   ** inconsistent supply air fan operation modes in coil and unitary system objects.\n   ** Warning ** The Standard Ratings is calculated for Coil:Heating:DX:SingleSpeed = PTHP 1 SPD DX HTG COIL 12 but not at the AHRI test condition due to curve out of bound.\n   **   ~~~   **  Review the Standard Ratings calculations in the Engineering Reference for this coil type. Also, use Output:Diagnostics, DisplayExtraWarnings for further guidance.\n   ** Warning ** Sizing: Coil:Heating:DX:SingleSpeed PTHP 1 SPD DX HTG COIL 12: Rated air volume flow rate per watt of rated total heating capacity is out of range.\n   **   ~~~   ** Min Rated Vol Flow Per Watt=[4.027E-005], Rated Vol Flow Per Watt=[509386094699589.188], Max Rated Vol Flow Per Watt=[6.041E-005]. See Input-Output Reference Manual for valid range.\n   ** Warning ** Coil:Heating:DX:SingleSpeed \"PTHP 1 SPD DX HTG COIL 12\" - Air volume flow rate per watt of rated total heating capacity is out of range at 507170670950275. m3/s/W.\n   **   ~~~   **  During Warmup, Environment=MONTREAL INT'L ANN CLG .4% CONDNS DB=>MWB, at Simulation time=07/21 00:00 - 00:10\n   **   ~~~   ** Expected range for VolumeFlowPerRatedTotalCapacity=[2.684E-005--8.056E-005]\n   **   ~~~   ** Possible causes include inconsistent air flow rates in system components or\n   **   ~~~   ** inconsistent supply air fan operation modes in coil and unitary system objects.\n   ** Warning ** The Standard Ratings is calculated for Coil:Heating:DX:SingleSpeed = PTHP 1 SPD DX HTG COIL 23 but not at the AHRI test condition due to curve out of bound.\n   **   ~~~   **  Review the Standard Ratings calculations in the Engineering Reference for this coil type. Also, use Output:Diagnostics, DisplayExtraWarnings for further guidance.\n   ** Warning ** Sizing: Coil:Heating:DX:SingleSpeed PTHP 1 SPD DX HTG COIL 23: Rated air volume flow rate per watt of rated total heating capacity is out of range.\n   **   ~~~   ** Min Rated Vol Flow Per Watt=[4.027E-005], Rated Vol Flow Per Watt=[14367370689095044.000], Max Rated Vol Flow Per Watt=[6.041E-005]. See Input-Output Reference Manual for valid range.\n   ** Warning ** Coil:Heating:DX:SingleSpeed \"PTHP 1 SPD DX HTG COIL 23\" - Air volume flow rate per watt of rated total heating capacity is out of range at 14304884071240688. m3/s/W.\n   **   ~~~   **  During Warmup, Environment=MONTREAL INT'L ANN CLG .4% CONDNS DB=>MWB, at Simulation time=07/21 00:00 - 00:10\n   **   ~~~   ** Expected range for VolumeFlowPerRatedTotalCapacity=[2.684E-005--8.056E-005]\n   **   ~~~   ** Possible causes include inconsistent air flow rates in system components or\n   **   ~~~   ** inconsistent supply air fan operation modes in coil and unitary system objects.\n   ** Warning ** The Standard Ratings is calculated for Coil:Heating:DX:SingleSpeed = PTHP 1 SPD DX HTG COIL 7 but not at the AHRI test condition due to curve out of bound.\n   **   ~~~   **  Review the Standard Ratings calculations in the Engineering Reference for this coil type. Also, use Output:Diagnostics, DisplayExtraWarnings for further guidance.\n   ** Warning ** Sizing: Coil:Heating:DX:SingleSpeed PTHP 1 SPD DX HTG COIL 7: Rated air volume flow rate per watt of rated total heating capacity is out of range.\n   **   ~~~   ** Min Rated Vol Flow Per Watt=[4.027E-005], Rated Vol Flow Per Watt=[734358523375279.250], Max Rated Vol Flow Per Watt=[6.041E-005]. See Input-Output Reference Manual for valid range.\n   ** Warning ** Coil:Heating:DX:SingleSpeed \"PTHP 1 SPD DX HTG COIL 7\" - Air volume flow rate per watt of rated total heating capacity is out of range at 731164648767932. m3/s/W.\n   **   ~~~   **  During Warmup, Environment=MONTREAL INT'L ANN CLG .4% CONDNS DB=>MWB, at Simulation time=07/21 00:00 - 00:10\n   **   ~~~   ** Expected range for VolumeFlowPerRatedTotalCapacity=[2.684E-005--8.056E-005]\n   **   ~~~   ** Possible causes include inconsistent air flow rates in system components or\n   **   ~~~   ** inconsistent supply air fan operation modes in coil and unitary system objects.\n   ** Warning ** The Standard Ratings is calculated for Coil:Heating:DX:SingleSpeed = PTHP 1 SPD DX HTG COIL 11 but not at the AHRI test condition due to curve out of bound.\n   **   ~~~   **  Review the Standard Ratings calculations in the Engineering Reference for this coil type. Also, use Output:Diagnostics, DisplayExtraWarnings for further guidance.\n   ** Warning ** Sizing: Coil:Heating:DX:SingleSpeed PTHP 1 SPD DX HTG COIL 11: Rated air volume flow rate per watt of rated total heating capacity is out of range.\n   **   ~~~   ** Min Rated Vol Flow Per Watt=[4.027E-005], Rated Vol Flow Per Watt=[716718373024408.125], Max Rated Vol Flow Per Watt=[6.041E-005]. See Input-Output Reference Manual for valid range.\n   ** Warning ** Coil:Heating:DX:SingleSpeed \"PTHP 1 SPD DX HTG COIL 11\" - Air volume flow rate per watt of rated total heating capacity is out of range at 713601219019440. m3/s/W.\n   **   ~~~   **  During Warmup, Environment=MONTREAL INT'L ANN CLG .4% CONDNS DB=>MWB, at Simulation time=07/21 00:00 - 00:10\n   **   ~~~   ** Expected range for VolumeFlowPerRatedTotalCapacity=[2.684E-005--8.056E-005]\n   **   ~~~   ** Possible causes include inconsistent air flow rates in system components or\n   **   ~~~   ** inconsistent supply air fan operation modes in coil and unitary system objects.\n   ** Warning ** The Standard Ratings is calculated for Coil:Heating:DX:SingleSpeed = PTHP 1 SPD DX HTG COIL 15 but not at the AHRI test condition due to curve out of bound.\n   **   ~~~   **  Review the Standard Ratings calculations in the Engineering Reference for this coil type. Also, use Output:Diagnostics, DisplayExtraWarnings for further guidance.\n   ** Warning ** Sizing: Coil:Heating:DX:SingleSpeed PTHP 1 SPD DX HTG COIL 15: Rated air volume flow rate per watt of rated total heating capacity is out of range.\n   **   ~~~   ** Min Rated Vol Flow Per Watt=[4.027E-005], Rated Vol Flow Per Watt=[481924123255025.938], Max Rated Vol Flow Per Watt=[6.041E-005]. See Input-Output Reference Manual for valid range.\n   ** Warning ** Coil:Heating:DX:SingleSpeed \"PTHP 1 SPD DX HTG COIL 15\" - Air volume flow rate per watt of rated total heating capacity is out of range at 479828137206062. m3/s/W.\n   **   ~~~   **  During Warmup, Environment=MONTREAL INT'L ANN CLG .4% CONDNS DB=>MWB, at Simulation time=07/21 00:00 - 00:10\n   **   ~~~   ** Expected range for VolumeFlowPerRatedTotalCapacity=[2.684E-005--8.056E-005]\n   **   ~~~   ** Possible causes include inconsistent air flow rates in system components or\n   **   ~~~   ** inconsistent supply air fan operation modes in coil and unitary system objects.\n   ** Warning ** The Standard Ratings is calculated for Coil:Heating:DX:SingleSpeed = PTHP 1 SPD DX HTG COIL 5 but not at the AHRI test condition due to curve out of bound.\n   **   ~~~   **  Review the Standard Ratings calculations in the Engineering Reference for this coil type. Also, use Output:Diagnostics, DisplayExtraWarnings for further guidance.\n   ** Warning ** Sizing: Coil:Heating:DX:SingleSpeed PTHP 1 SPD DX HTG COIL 5: Rated air volume flow rate per watt of rated total heating capacity is out of range.\n   **   ~~~   ** Min Rated Vol Flow Per Watt=[4.027E-005], Rated Vol Flow Per Watt=[744941034770202.000], Max Rated Vol Flow Per Watt=[6.041E-005]. See Input-Output Reference Manual for valid range.\n   ** Warning ** Coil:Heating:DX:SingleSpeed \"PTHP 1 SPD DX HTG COIL 5\" - Air volume flow rate per watt of rated total heating capacity is out of range at 741701134668018. m3/s/W.\n   **   ~~~   **  During Warmup, Environment=MONTREAL INT'L ANN CLG .4% CONDNS DB=>MWB, at Simulation time=07/21 00:00 - 00:10\n   **   ~~~   ** Expected range for VolumeFlowPerRatedTotalCapacity=[2.684E-005--8.056E-005]\n   **   ~~~   ** Possible causes include inconsistent air flow rates in system components or\n   **   ~~~   ** inconsistent supply air fan operation modes in coil and unitary system objects.\n   ** Warning ** Water heater = 600 GAL WATER HEATER - 600 KBTU/HR:  Recovery Efficiency and Energy Factor could not be calculated during the test for standard ratings\n   **   ~~~   ** Setpoint was never recovered and/or heater never turned on\n   ** Warning ** Output:Meter: invalid Key Name=\"DISTRICTCOOLING:FACILITY\" - not found.\n   ** Warning ** Output:Meter: invalid Key Name=\"DISTRICTHEATING:FACILITY\" - not found.\n   ** Warning ** Output:Meter:MeterFileOnly requested for \"Electricity:Facility\" (TimeStep), already on \"Output:Meter\". Will report to both eplusout.eso and eplusout.mtr\n   ************* Testing Individual Branch Integrity\n   ************* All Branches passed integrity testing\n   ************* Testing Individual Supply Air Path Integrity\n   ************* All Supply Air Paths passed integrity testing\n   ************* Testing Individual Return Air Path Integrity\n   ************* All Return Air Paths passed integrity testing\n   ************* No node connection errors were found.\n   ** Warning ** CalcEquipmentFlowRates: \"ESTAR MFHR WHOLE BUILDING WATER USE EQUIPMENT\" - Target water temperature is greater than the hot water temperature by (3.81 C)\n   **   ~~~   **  Environment=MONTREAL INT'L ANN CLG .4% CONDNS DB=>MWB HVAC Sizing Pass 1, at Simulation time=07/21 00:00 - 00:10\n   **   ~~~   ** ...target water temperature     = 60.00 C\n   **   ~~~   ** ...hot water temperature        = 56.19 C\n   **   ~~~   ** ...Target water temperature should be less than or equal to the hot water temperature. Verify temperature setpoints and schedules.\n   ** Warning ** Processing Monthly Tabular Reports: Variable names not valid for this simulation\n   **   ~~~   ** ...use Output:Diagnostics,DisplayExtraWarnings; to show more details on individual variables.\n   ************* Beginning Simulation\n   ** Warning ** CalcDoe2DXCoil: Coil:Cooling:DX:SingleSpeed \"PTHP 1 SPD DX CLG COIL 19\" - Air-cooled condenser inlet dry-bulb temperature below 0 C. Outdoor dry-bulb temperature = -0.18\n   **   ~~~   **  ... Occurrence info = RUN PERIOD 1, 02/08 16:00 - 16:10\n   **   ~~~   ** ... Operation at low ambient temperatures may require special performance curves.\n   ** Warning ** CalcDoe2DXCoil: Coil:Cooling:DX:SingleSpeed \"PTHP 1 SPD DX CLG COIL 20\" - Air-cooled condenser inlet dry-bulb temperature below 0 C. Outdoor dry-bulb temperature = -0.18\n   **   ~~~   **  ... Occurrence info = RUN PERIOD 1, 02/08 16:00 - 16:10\n   **   ~~~   ** ... Operation at low ambient temperatures may require special performance curves.\n   ** Warning ** CalcDoe2DXCoil: Coil:Cooling:DX:SingleSpeed \"PTHP 1 SPD DX CLG COIL 17\" - Air-cooled condenser inlet dry-bulb temperature below 0 C. Outdoor dry-bulb temperature = -0.18\n   **   ~~~   **  ... Occurrence info = RUN PERIOD 1, 02/08 16:00 - 16:10\n   **   ~~~   ** ... Operation at low ambient temperatures may require special performance curves.\n   ** Warning ** CalcDoe2DXCoil: Coil:Cooling:DX:SingleSpeed \"PTHP 1 SPD DX CLG COIL 6\" - Air-cooled condenser inlet dry-bulb temperature below 0 C. Outdoor dry-bulb temperature = -1.95\n   **   ~~~   **  ... Occurrence info = RUN PERIOD 1, 03/13 13:20 - 13:25\n   **   ~~~   ** ... Operation at low ambient temperatures may require special performance curves.\n   ** Warning ** CalcDoe2DXCoil: Coil:Cooling:DX:SingleSpeed \"PTHP 1 SPD DX CLG COIL 22\" - Air-cooled condenser inlet dry-bulb temperature below 0 C. Outdoor dry-bulb temperature = -1.95\n   **   ~~~   **  ... Occurrence info = RUN PERIOD 1, 03/13 13:25 - 13:30\n   **   ~~~   ** ... Operation at low ambient temperatures may require special performance curves.\n   ** Warning ** CalcDoe2DXCoil: Coil:Cooling:DX:SingleSpeed \"PTHP 1 SPD DX CLG COIL 4\" - Air-cooled condenser inlet dry-bulb temperature below 0 C. Outdoor dry-bulb temperature = -1.78\n   **   ~~~   **  ... Occurrence info = RUN PERIOD 1, 03/13 13:40 - 13:45\n   **   ~~~   ** ... Operation at low ambient temperatures may require special performance curves.\n   ** Warning ** CalcDoe2DXCoil: Coil:Cooling:DX:SingleSpeed \"PTHP 1 SPD DX CLG COIL 23\" - Air-cooled condenser inlet dry-bulb temperature below 0 C. Outdoor dry-bulb temperature = -1.70\n   **   ~~~   **  ... Occurrence info = RUN PERIOD 1, 03/13 13:55 - 14:00\n   **   ~~~   ** ... Operation at low ambient temperatures may require special performance curves.\n   ** Warning ** CalcDoe2DXCoil: Coil:Cooling:DX:SingleSpeed \"PTHP 1 SPD DX CLG COIL 8\" - Air-cooled condenser inlet dry-bulb temperature below 0 C. Outdoor dry-bulb temperature = -1.70\n   **   ~~~   **  ... Occurrence info = RUN PERIOD 1, 03/13 14:20 - 14:30\n   **   ~~~   ** ... Operation at low ambient temperatures may require special performance curves.\n   ** Warning ** CalcDoe2DXCoil: Coil:Cooling:DX:SingleSpeed \"PTHP 1 SPD DX CLG COIL 21\" - Air-cooled condenser inlet dry-bulb temperature below 0 C. Outdoor dry-bulb temperature = -1.70\n   **   ~~~   **  ... Occurrence info = RUN PERIOD 1, 03/13 14:45 - 14:50\n   **   ~~~   ** ... Operation at low ambient temperatures may require special performance curves.\n   ** Warning ** CalcDoe2DXCoil: Coil:Cooling:DX:SingleSpeed \"PTHP 1 SPD DX CLG COIL 18\" - Air-cooled condenser inlet dry-bulb temperature below 0 C. Outdoor dry-bulb temperature = -1.10\n   **   ~~~   **  ... Occurrence info = RUN PERIOD 1, 03/21 15:10 - 15:20\n   **   ~~~   ** ... Operation at low ambient temperatures may require special performance curves.\n   ** Warning ** CalcDoe2DXCoil: Coil:Cooling:DX:SingleSpeed \"PTHP 1 SPD DX CLG COIL 13\" - Air-cooled condenser inlet dry-bulb temperature below 0 C. Outdoor dry-bulb temperature = -1.10\n   **   ~~~   **  ... Occurrence info = RUN PERIOD 1, 03/21 15:30 - 15:40\n   **   ~~~   ** ... Operation at low ambient temperatures may require special performance curves.\n   ** Warning ** The resource referenced by LifeCycleCost:UsePriceEscalation= \"U.S. AVG  COMMERCIAL-ELECTRICITY\" has no energy cost. \n   **   ~~~   ** ... It is likely that the wrong resource is used. The resource should match the meter used in Utility:Tariff.\n   ** Warning ** The resource referenced by LifeCycleCost:UsePriceEscalation= \"U.S. AVG  COMMERCIAL-DISTILLATE OIL\" has no energy cost. \n   **   ~~~   ** ... It is likely that the wrong resource is used. The resource should match the meter used in Utility:Tariff.\n   ** Warning ** The resource referenced by LifeCycleCost:UsePriceEscalation= \"U.S. AVG  COMMERCIAL-RESIDUAL OIL\" has no energy cost. \n   **   ~~~   ** ... It is likely that the wrong resource is used. The resource should match the meter used in Utility:Tariff.\n   ** Warning ** The resource referenced by LifeCycleCost:UsePriceEscalation= \"U.S. AVG  COMMERCIAL-NATURAL GAS\" has no energy cost. \n   **   ~~~   ** ... It is likely that the wrong resource is used. The resource should match the meter used in Utility:Tariff.\n   ** Warning ** The resource referenced by LifeCycleCost:UsePriceEscalation= \"U.S. AVG  COMMERCIAL-COAL\" has no energy cost. \n   **   ~~~   ** ... It is likely that the wrong resource is used. The resource should match the meter used in Utility:Tariff.\n   ************* Simulation Error Summary *************\n   ************* There are 39 unused schedules in input.\n   ************* There are 41 unused week schedules in input.\n   ************* There are 114 unused day schedules in input.\n   ************* Use Output:Diagnostics,DisplayUnusedSchedules; to see them.\n   *************\n   ************* ===== Recurring Error Summary =====\n   ************* The following recurring error messages occurred.\n   *************\n   *************  ** Warning ** Coil:Heating:DX:SingleSpeed \"PTHP 1 SPD DX HTG COIL\" - Air volume flow rate per watt of rated total heating capacity is out of range error continues...\n   *************  **   ~~~   **   This error occurred 891 total times;\n   *************  **   ~~~   **   during Warmup 121 times;\n   *************  **   ~~~   **   during Sizing 0 times.\n   *************  **   ~~~   **   Max=442090642311177.937500  Min=0.977329\n   *************\n   *************  ** Warning ** Coil:Heating:DX:SingleSpeed \"PTHP 1 SPD DX HTG COIL 1\" - Air volume flow rate per watt of rated total heating capacity is out of range error continues...\n   *************  **   ~~~   **   This error occurred 1716 total times;\n   *************  **   ~~~   **   during Warmup 151 times;\n   *************  **   ~~~   **   during Sizing 0 times.\n   *************  **   ~~~   **   Max=738224542873412.750000  Min=17838414458947.132812\n   *************\n   *************  ** Warning ** Coil:Heating:DX:SingleSpeed \"PTHP 1 SPD DX HTG COIL 13\" - Air volume flow rate per watt of rated total heating capacity is out of range error continues...\n   *************  **   ~~~   **   This error occurred 326 total times;\n   *************  **   ~~~   **   during Warmup 106 times;\n   *************  **   ~~~   **   during Sizing 0 times.\n   *************  **   ~~~   **   Max=14215155329138990.000000  Min=174142556995912.718750\n   *************\n   *************  ** Warning ** Coil:Heating:DX:SingleSpeed \"PTHP 1 SPD DX HTG COIL 14\" - Air volume flow rate per watt of rated total heating capacity is out of range error continues...\n   *************  **   ~~~   **   This error occurred 291 total times;\n   *************  **   ~~~   **   during Warmup 86 times;\n   *************  **   ~~~   **   during Sizing 0 times.\n   *************  **   ~~~   **   Max=14854767589787518.000000  Min=179315000288162.375000\n   *************\n   *************  ** Warning ** Coil:Heating:DX:SingleSpeed \"PTHP 1 SPD DX HTG COIL 4\" - Air volume flow rate per watt of rated total heating capacity is out of range error continues...\n   *************  **   ~~~   **   This error occurred 131 total times;\n   *************  **   ~~~   **   during Warmup 41 times;\n   *************  **   ~~~   **   during Sizing 0 times.\n   *************  **   ~~~   **   Max=1850904212670177.250000  Min=18018853090399.945312\n   *************\n   *************  ** Warning ** Coil:Heating:DX:SingleSpeed \"PTHP 1 SPD DX HTG COIL 21\" - Air volume flow rate per watt of rated total heating capacity is out of range error continues...\n   *************  **   ~~~   **   This error occurred 6 total times;\n   *************  **   ~~~   **   during Warmup 1 times;\n   *************  **   ~~~   **   during Sizing 0 times.\n   *************  **   ~~~   **   Max=29844582102468928.000000  Min=153930839634507.062500\n   *************\n   *************  ** Warning ** Coil:Heating:DX:SingleSpeed \"PTHP 1 SPD DX HTG COIL 3\" - Air volume flow rate per watt of rated total heating capacity is out of range error continues...\n   *************  **   ~~~   **   This error occurred 281 total times;\n   *************  **   ~~~   **   during Warmup 76 times;\n   *************  **   ~~~   **   during Sizing 0 times.\n   *************  **   ~~~   **   Max=14493472656942740.000000  Min=179412900981196.750000\n   *************\n   *************  ** Warning ** Coil:Heating:DX:SingleSpeed \"PTHP 1 SPD DX HTG COIL 19\" - Air volume flow rate per watt of rated total heating capacity is out of range error continues...\n   *************  **   ~~~   **   This error occurred 286 total times;\n   *************  **   ~~~   **   during Warmup 81 times;\n   *************  **   ~~~   **   during Sizing 0 times.\n   *************  **   ~~~   **   Max=14576869089814442.000000  Min=174182246540533.031250\n   *************\n   *************  ** Warning ** Coil:Heating:DX:SingleSpeed \"PTHP 1 SPD DX HTG COIL 16\" - Air volume flow rate per watt of rated total heating capacity is out of range error continues...\n   *************  **   ~~~   **   This error occurred 211 total times;\n   *************  **   ~~~   **   during Warmup 36 times;\n   *************  **   ~~~   **   during Sizing 0 times.\n   *************  **   ~~~   **   Max=15104158005062962.000000  Min=0.979419\n   *************\n   *************  ** Warning ** Coil:Heating:DX:SingleSpeed \"PTHP 1 SPD DX HTG COIL 6\" - Air volume flow rate per watt of rated total heating capacity is out of range error continues...\n   *************  **   ~~~   **   This error occurred 81 total times;\n   *************  **   ~~~   **   during Warmup 1 times;\n   *************  **   ~~~   **   during Sizing 0 times.\n   *************  **   ~~~   **   Max=1773376447427843.000000  Min=16817596217706.621094\n   *************\n   *************  ** Warning ** Coil:Heating:DX:SingleSpeed \"PTHP 1 SPD DX HTG COIL 22\" - Air volume flow rate per watt of rated total heating capacity is out of range error continues...\n   *************  **   ~~~   **   This error occurred 136 total times;\n   *************  **   ~~~   **   during Warmup 41 times;\n   *************  **   ~~~   **   during Sizing 0 times.\n   *************  **   ~~~   **   Max=1788047068952670.000000  Min=18018853090399.945312\n   *************\n   *************  ** Warning ** Coil:Heating:DX:SingleSpeed \"PTHP 1 SPD DX HTG COIL 9\" - Air volume flow rate per watt of rated total heating capacity is out of range error continues...\n   *************  **   ~~~   **   This error occurred 486 total times;\n   *************  **   ~~~   **   during Warmup 76 times;\n   *************  **   ~~~   **   during Sizing 0 times.\n   *************  **   ~~~   **   Max=5527460475056809.000000  Min=0.977740\n   *************\n   *************  ** Warning ** Coil:Heating:DX:SingleSpeed \"PTHP 1 SPD DX HTG COIL 20\" - Air volume flow rate per watt of rated total heating capacity is out of range error continues...\n   *************  **   ~~~   **   This error occurred 136 total times;\n   *************  **   ~~~   **   during Warmup 41 times;\n   *************  **   ~~~   **   during Sizing 0 times.\n   *************  **   ~~~   **   Max=1811900102926531.500000  Min=17418224654053.304688\n   *************\n   *************  ** Warning ** Coil:Heating:DX:SingleSpeed \"PTHP 1 SPD DX HTG COIL 8\" - Air volume flow rate per watt of rated total heating capacity is out of range error continues...\n   *************  **   ~~~   **   This error occurred 6 total times;\n   *************  **   ~~~   **   during Warmup 1 times;\n   *************  **   ~~~   **   during Sizing 0 times.\n   *************  **   ~~~   **   Max=3167699516636490.500000  Min=0.998698\n   *************\n   *************  ** Warning ** Coil:Heating:DX:SingleSpeed \"PTHP 1 SPD DX HTG COIL 17\" - Air volume flow rate per watt of rated total heating capacity is out of range error continues...\n   *************  **   ~~~   **   This error occurred 151 total times;\n   *************  **   ~~~   **   during Warmup 41 times;\n   *************  **   ~~~   **   during Sizing 0 times.\n   *************  **   ~~~   **   Max=1748944895072983.500000  Min=17418224654053.304688\n   *************\n   *************  ** Warning ** Coil:Heating:DX:SingleSpeed \"PTHP 1 SPD DX HTG COIL 18\" - Air volume flow rate per watt of rated total heating capacity is out of range error continues...\n   *************  **   ~~~   **   This error occurred 136 total times;\n   *************  **   ~~~   **   during Warmup 41 times;\n   *************  **   ~~~   **   during Sizing 0 times.\n   *************  **   ~~~   **   Max=1850599914728728.500000  Min=18018853090399.972656\n   *************\n   *************  ** Warning ** Coil:Heating:DX:SingleSpeed \"PTHP 1 SPD DX HTG COIL 2\" - Air volume flow rate per watt of rated total heating capacity is out of range error continues...\n   *************  **   ~~~   **   This error occurred 176 total times;\n   *************  **   ~~~   **   during Warmup 36 times;\n   *************  **   ~~~   **   during Sizing 0 times.\n   *************  **   ~~~   **   Max=1582800472846101.750000  Min=17838414458947.132812\n   *************\n   *************  ** Warning ** Coil:Heating:DX:SingleSpeed \"PTHP 1 SPD DX HTG COIL 12\" - Air volume flow rate per watt of rated total heating capacity is out of range error continues...\n   *************  **   ~~~   **   This error occurred 5011 total times;\n   *************  **   ~~~   **   during Warmup 181 times;\n   *************  **   ~~~   **   during Sizing 0 times.\n   *************  **   ~~~   **   Max=507170670950275.312500  Min=17399995941572.734375\n   *************\n   *************  ** Warning ** Coil:Heating:DX:SingleSpeed \"PTHP 1 SPD DX HTG COIL 23\" - Air volume flow rate per watt of rated total heating capacity is out of range error continues...\n   *************  **   ~~~   **   This error occurred 231 total times;\n   *************  **   ~~~   **   during Warmup 76 times;\n   *************  **   ~~~   **   during Sizing 0 times.\n   *************  **   ~~~   **   Max=14304884071240688.000000  Min=168175962177066.187500\n   *************\n   *************  ** Warning ** Coil:Heating:DX:SingleSpeed \"PTHP 1 SPD DX HTG COIL 7\" - Air volume flow rate per watt of rated total heating capacity is out of range error continues...\n   *************  **   ~~~   **   This error occurred 1971 total times;\n   *************  **   ~~~   **   during Warmup 161 times;\n   *************  **   ~~~   **   during Sizing 0 times.\n   *************  **   ~~~   **   Max=731164648767932.250000  Min=17313789750533.785156\n   *************\n   *************  ** Warning ** Coil:Heating:DX:SingleSpeed \"PTHP 1 SPD DX HTG COIL 11\" - Air volume flow rate per watt of rated total heating capacity is out of range error continues...\n   *************  **   ~~~   **   This error occurred 1791 total times;\n   *************  **   ~~~   **   during Warmup 151 times;\n   *************  **   ~~~   **   during Sizing 0 times.\n   *************  **   ~~~   **   Max=713601219019440.125000  Min=16716762517756.730469\n   *************\n   *************  ** Warning ** Coil:Heating:DX:SingleSpeed \"PTHP 1 SPD DX HTG COIL 15\" - Air volume flow rate per watt of rated total heating capacity is out of range error continues...\n   *************  **   ~~~   **   This error occurred 5286 total times;\n   *************  **   ~~~   **   during Warmup 406 times;\n   *************  **   ~~~   **   during Sizing 0 times.\n   *************  **   ~~~   **   Max=479828137206062.250000  Min=17977353067439.281250\n   *************\n   *************  ** Warning ** Coil:Heating:DX:SingleSpeed \"PTHP 1 SPD DX HTG COIL 5\" - Air volume flow rate per watt of rated total heating capacity is out of range error continues...\n   *************  **   ~~~   **   This error occurred 1946 total times;\n   *************  **   ~~~   **   during Warmup 171 times;\n   *************  **   ~~~   **   during Sizing 0 times.\n   *************  **   ~~~   **   Max=741701134668018.000000  Min=17910816983310.812500\n   *************\n   *************  ** Warning ** \"ESTAR MFHR WHOLE BUILDING WATER USE EQUIPMENT\" - Target water temperature should be less than or equal to the hot water temperature error continues...\n   *************  **   ~~~   **   This error occurred 485907 total times;\n   *************  **   ~~~   **   during Warmup 0 times;\n   *************  **   ~~~   **   during Sizing 0 times.\n   *************  **   ~~~   **   Max=4.996893  Min=0.000510\n   *************\n   *************  ** Warning ** CalcDoe2DXCoil: Coil:Cooling:DX:SingleSpeed=\"PTHP 1 SPD DX CLG COIL 19\" - Low condenser dry-bulb temperature error continues...\n   *************  **   ~~~   **   This error occurred 19 total times;\n   *************  **   ~~~   **   during Warmup 0 times;\n   *************  **   ~~~   **   during Sizing 0 times.\n   *************  **   ~~~   **   Max=-0.183333 [C]  Min=-1.100000 [C]\n   *************\n   *************  ** Warning ** CalcDoe2DXCoil: Coil:Cooling:DX:SingleSpeed=\"PTHP 1 SPD DX CLG COIL 20\" - Low condenser dry-bulb temperature error continues...\n   *************  **   ~~~   **   This error occurred 33 total times;\n   *************  **   ~~~   **   during Warmup 0 times;\n   *************  **   ~~~   **   during Sizing 0 times.\n   *************  **   ~~~   **   Max=-0.183333 [C]  Min=-4.066667 [C]\n   *************\n   *************  ** Warning ** CalcDoe2DXCoil: Coil:Cooling:DX:SingleSpeed=\"PTHP 1 SPD DX CLG COIL 17\" - Low condenser dry-bulb temperature error continues...\n   *************  **   ~~~   **   This error occurred 19 total times;\n   *************  **   ~~~   **   during Warmup 0 times;\n   *************  **   ~~~   **   during Sizing 0 times.\n   *************  **   ~~~   **   Max=-0.183333 [C]  Min=-1.200000 [C]\n   *************\n   *************  ** Warning ** CalcDoe2DXCoil: Coil:Cooling:DX:SingleSpeed=\"PTHP 1 SPD DX CLG COIL 6\" - Low condenser dry-bulb temperature error continues...\n   *************  **   ~~~   **   This error occurred 42 total times;\n   *************  **   ~~~   **   during Warmup 0 times;\n   *************  **   ~~~   **   during Sizing 0 times.\n   *************  **   ~~~   **   Max=-1.100000 [C]  Min=-4.066667 [C]\n   *************\n   *************  ** Warning ** CalcDoe2DXCoil: Coil:Cooling:DX:SingleSpeed=\"PTHP 1 SPD DX CLG COIL 22\" - Low condenser dry-bulb temperature error continues...\n   *************  **   ~~~   **   This error occurred 26 total times;\n   *************  **   ~~~   **   during Warmup 0 times;\n   *************  **   ~~~   **   during Sizing 0 times.\n   *************  **   ~~~   **   Max=-1.200000 [C]  Min=-3.900000 [C]\n   *************\n   *************  ** Warning ** CalcDoe2DXCoil: Coil:Cooling:DX:SingleSpeed=\"PTHP 1 SPD DX CLG COIL 4\" - Low condenser dry-bulb temperature error continues...\n   *************  **   ~~~   **   This error occurred 14 total times;\n   *************  **   ~~~   **   during Warmup 0 times;\n   *************  **   ~~~   **   during Sizing 0 times.\n   *************  **   ~~~   **   Max=-1.400000 [C]  Min=-1.866667 [C]\n   *************\n   *************  ** Warning ** CalcDoe2DXCoil: Coil:Cooling:DX:SingleSpeed=\"PTHP 1 SPD DX CLG COIL 23\" - Low condenser dry-bulb temperature error continues...\n   *************  **   ~~~   **   This error occurred 13 total times;\n   *************  **   ~~~   **   during Warmup 0 times;\n   *************  **   ~~~   **   during Sizing 0 times.\n   *************  **   ~~~   **   Max=-1.100000 [C]  Min=-1.700000 [C]\n   *************\n   *************  ** Warning ** CalcDoe2DXCoil: Coil:Cooling:DX:SingleSpeed=\"PTHP 1 SPD DX CLG COIL 8\" - Low condenser dry-bulb temperature error continues...\n   *************  **   ~~~   **   This error occurred 80 total times;\n   *************  **   ~~~   **   during Warmup 0 times;\n   *************  **   ~~~   **   during Sizing 0 times.\n   *************  **   ~~~   **   Max=-0.183333 [C]  Min=-4.400000 [C]\n   *************\n   *************  ** Warning ** CalcDoe2DXCoil: Coil:Cooling:DX:SingleSpeed=\"PTHP 1 SPD DX CLG COIL 21\" - Low condenser dry-bulb temperature error continues...\n   *************  **   ~~~   **   This error occurred 86 total times;\n   *************  **   ~~~   **   during Warmup 0 times;\n   *************  **   ~~~   **   during Sizing 0 times.\n   *************  **   ~~~   **   Max=-0.183333 [C]  Min=-4.400000 [C]\n   *************\n   *************  ** Warning ** CalcDoe2DXCoil: Coil:Cooling:DX:SingleSpeed=\"PTHP 1 SPD DX CLG COIL 18\" - Low condenser dry-bulb temperature error continues...\n   *************  **   ~~~   **   This error occurred 10 total times;\n   *************  **   ~~~   **   during Warmup 0 times;\n   *************  **   ~~~   **   during Sizing 0 times.\n   *************  **   ~~~   **   Max=-0.766667 [C]  Min=-1.100000 [C]\n   *************\n   *************  ** Warning ** CalcDoe2DXCoil: Coil:Cooling:DX:SingleSpeed=\"PTHP 1 SPD DX CLG COIL 13\" - Low condenser dry-bulb temperature error continues...\n   *************  **   ~~~   **   This error occurred 9 total times;\n   *************  **   ~~~   **   during Warmup 0 times;\n   *************  **   ~~~   **   during Sizing 0 times.\n   *************  **   ~~~   **   Max=-0.683333 [C]  Min=-1.100000 [C]\n   *************\n   *************\n   ************* ===== Final Error Summary =====\n   ************* The following error categories occurred.  Consider correcting or noting.\n   ************* Nominally Unused Constructions\n   ************* ..The nominally unused constructions warning is provided to alert you to potential conditions that can cause\n   ************* ..extra time during simulation. Each construction is calculated by the algorithm indicated in the HeatBalanceAlgorithm\n   ************* ..object. You may remove the constructions indicated (when you use the DisplayExtraWarnings option).\n   *************\n   ************* EnergyPlus Warmup Error Summary. During Warmup: 0 Warning; 0 Severe Errors.\n   ************* EnergyPlus Sizing Error Summary. During Sizing: 54 Warning; 0 Severe Errors.\n   ************* EnergyPlus Completed Successfully-- 508053 Warning; 0 Severe Errors; Elapsed Time=00hr 01min  2.56sec\n\u0000\u0000\u0000\u0000\u0000\u0000\u0000\u0000\u0000\u0000\u0000\u0000\u0000\u0000\u0000\u0000\u0000\u0000\u0000\u0000\u0000\u0000\u0000\u0000\u0000\u0000\u0000\u0000\u0000\u0000\u0000\u0000\u0000\u0000\u0000\u0000\u0000\u0000\u0000\u0000\u0000\u0000\u0000\u0000\u0000\u0000\u0000\u0000\u0000\u0000\u0000\u0000\u0000\u0000\u0000\u0000\u0000\u0000\u0000\u0000\u0000\u0000\u0000\u0000\u0000\u0000\u0000\u0000\u0000\u0000\u0000\u0000\u0000\u0000\u0000\u0000\u0000\u0000\u0000\u0000\u0000\u0000\u0000\u0000\u0000\u0000\u0000\u0000\u0000\u0000\u0000\u0000\u0000\u0000\u0000\u0000\u0000\u0000\u0000\u0000\u0000\u0000\u0000\u0000\u0000\u0000\u0000\u0000\u0000\u0000\u0000\u0000\u0000\u0000\u0000\u0000\u0000\u0000\u0000\u0000\u0000\u0000\u0000\u0000\u0000\u0000\u0000\u0000\u0000\u0000\u0000\u0000\u0000\u0000\u0000\u0000\u0000\u0000\u0000\u0000\u0000\u0000\u0000\u0000\u0000\u0000\u0000\u0000\u0000\u0000\u0000\u0000\u0000\u0000\u0000\u0000\u0000\u0000\u0000\u0000\u0000\u0000\u0000\u0000\u0000\u0000\u0000\u0000\u0000\u0000\u0000\u0000\u0000\u0000\u0000\u0000\u0000\u0000\u0000\u0000\u0000\u0000\u0000\u0000\u0000\u0000\u0000\u0000\u0000\u0000\u0000\u0000\u0000\u0000\u0000\u0000\u0000\u0000\u0000\u0000\u0000\u0000\u0000\u0000\u0000\u0000\u0000\u0000\u0000\u0000\u0000\u0000\u0000\u0000\u0000\u0000\u0000\u0000\u0000\u0000\u0000\u0000\u0000\u0000\u0000\u0000\u0000\u0000\u0000\u0000\u0000\u0000\u0000\u0000\u0000\u0000\u0000\u0000\u0000\u0000\u0000\u0000\u0000\u0000\u0000\u0000\u0000\u0000\u0000\u0000\u0000\u0000\u0000\u0000\u0000\u0000\u0000\u0000\u0000\u0000\u0000\u0000\u0000\u0000\u0000\u0000\u0000\u0000\u0000\u0000\u0000\u0000\u0000\u0000\u0000\u0000\u0000\u0000\u0000\u0000\u0000\u0000\u0000\u0000\u0000\u0000\u0000\u0000\u0000\u0000\u0000\u0000\u0000\u0000\u0000\u0000\u0000\u0000\u0000\u0000\u0000\u0000\u0000\u0000\u0000\u0000\u0000\u0000\u0000\u0000\u0000\u0000\u0000\u0000\u0000\u0000\u0000\u0000\u0000\u0000\u0000\u0000\u0000\u0000\u0000\u0000\u0000\u0000\u0000\u0000\u0000\u0000\u0000\u0000\u0000\u0000\u0000\u0000\u0000\u0000\u0000\u0000\u0000\u0000\u0000\u0000\u0000\u0000\u0000\u0000\u0000\u0000\u0000\u0000\u0000\u0000\u0000\u0000\u0000\u0000\u0000\u0000\u0000\u0000\u0000\u0000\u0000\u0000\u0000\u0000\u0000\u0000\u0000\u0000\u0000\u0000\u0000\u0000\u0000\u0000\u0000\u0000\u0000\u0000\u0000\u0000\u0000\u0000\u0000\u0000\u0000\u0000\u0000\u0000\u0000\u0000\u0000\u0000\u0000\u0000\u0000\u0000\u0000\u0000\u0000\u0000\u0000\u0000\u0000\u0000\u0000\u0000\u0000\u0000\u0000\u0000\u0000\u0000\u0000\u0000\u0000\u0000\u0000\u0000\u0000\u0000\u0000\u0000\u0000\u0000\u0000\u0000\u0000\u0000\u0000\u0000\u0000\u0000\u0000\u0000\u0000\u0000\u0000\u0000\u0000\u0000\u0000\u0000\u0000\u0000\u0000\u0000\u0000\u0000\u0000\u0000\u0000\u0000\u0000\u0000\u0000\u0000\u0000\u0000\u0000\u0000\u0000\u0000\u0000\u0000\u0000\u0000\u0000\u0000\u0000\u0000\u0000\u0000\u0000\u0000\u0000\u0000\u0000\u0000\u0000\u0000\u0000\u0000\u0000\u0000\u0000\u0000\u0000\u0000\u0000\u0000\u0000\u0000\u0000\u0000\u0000\u0000\u0000\u0000\u0000\u0000\u0000\u0000\u0000\u0000\u0000\u0000\u0000\u0000\u0000\u0000\u0000\u0000\u0000\u0000\u0000\u0000\u0000\u0000\u0000\u0000\u0000\u0000\u0000\u0000\u0000\u0000\u0000\u0000\u0000\u0000\u0000\u0000\u0000\u0000\u0000\u0000\u0000\u0000\u0000\u0000\u0000\u0000\u0000\u0000\u0000\u0000\u0000\u0000\u0000\u0000\u0000\u0000\u0000\u0000\u0000\u0000\u0000\u0000\u0000\u0000\u0000\u0000\u0000\u0000\u0000\u0000\u0000\u0000\u0000\u0000\u0000\u0000\u0000\u0000\u0000\u0000\u0000\u0000\u0000\u0000\u0000\u0000\u0000\u0000\u0000\u0000\u0000\u0000\u0000\u0000\u0000\u0000\u0000\u0000\u0000\u0000\u0000\u0000\u0000\u0000\u0000\u0000\u0000\u0000\u0000\u0000\u0000\u0000\u0000\u0000\u0000\u0000\u0000\u0000\u0000\u0000\u0000\u0000\u0000\u0000\u0000\u0000\u0000\u0000\u0000\u0000\u0000\u0000\u0000\u0000\u0000\u0000\u0000\u0000\u0000\u0000\u0000\u0000\u0000\u0000\u0000\u0000\u0000\u0000\u0000\u0000\u0000\u0000\u0000",
   "file_paths" : 
   [
      "C:/Users/ORIOL~1.GAV/AppData/Local/Temp/osmodel-effd-9a54-e538-2b77-1721214101-0/resources/generated_files",
      "./files",
      "./weather",
      "../../files",
      "../../weather",
      "./"
   ],
   "hash" : "8FE6DC79",
   "run_options" : null,
   "seed_file" : "../4_MURB_HR_1950_1980_3471Hutchison.osm",
   "started_at" : "20240717T110301Z",
   "steps" : 
   [
      {
         "arguments" : 
         {
            "facade" : "All",
            "wwr" : 0.29999999999999999
         },
         "description" : "This measure will set the window to wall ratio for exterior surfaces with a specified orientation. If one or more windows exist on an affected wall, they will be removed and replaced with a single ribbon window. Doors will not be removed. If the requested ratio can?t be achieved then the wall will remain un-touched.",
         "measure_dir_name" : "SetWindowToWallRatioByFacade",
         "modeler_description" : "This measure identifies exterior surfaces of the proper orientation. Then it runs a method that removes existing windows and applies a new window with a specified window to wall ratio and sill height. The construction chosen for the new window is defaulted to what is assigned to the space, or inherited from a higher level object, such as the building. If the baseline model uses hard assigned constructions you may not get the expected results.\n\n\n\n\n\n\n\n\n\n\n\nThe measure doesn?t have any cost or lifecycle arguments, however If lifecycle objects exist for exterior wall and window constructions, then this measure will be able to calculate the economic impact of change in window to wall ratio.\n\n\n\n\n\n  ",
         "name" : "Set Window to Wall Ratio by Facade",
         "result" : 
         {
            "completed_at" : "20240717T110302Z",
            "measure_class_name" : "SetWindowToWallRatioByFacade",
            "measure_display_name" : "Set Window to Wall Ratio by Facade",
            "measure_name" : "set_window_to_wall_ratio_by_facade",
            "measure_taxonomy" : "Envelope.Fenestration",
            "measure_type" : "ModelMeasure",
            "measure_uid" : "c567a0bf-a7d9-4a06-afe9-bf7df79e6bf8",
            "measure_version_id" : "f92b9832-7215-4264-a35c-244e30665282",
            "measure_version_modified" : "20230602T160042Z",
            "measure_xml_checksum" : "6DE831F7",
            "started_at" : "20240717T110302Z",
            "stderr" : "",
            "stdout" : "[openstudio.measure.OSRunner] <Info> Space Space 116 in thermal zone Thermal Zone 17 has a zone multiplier of 10. Adjusting area calculations.\n[openstudio.measure.OSRunner] <Info> Space Space 110 in thermal zone Thermal Zone 11 has a zone multiplier of 10. Adjusting area calculations.\n[openstudio.measure.OSRunner] <Info> Space Space 111 in thermal zone Thermal Zone 12 has a zone multiplier of 10. Adjusting area calculations.\n[openstudio.measure.OSRunner] <Info> Space Space 112 in thermal zone Thermal Zone 5 has a zone multiplier of 10. Adjusting area calculations.\n[openstudio.measure.OSRunner] <Info> Space Space 113 in thermal zone Thermal Zone 14 has a zone multiplier of 10. Adjusting area calculations.\n[openstudio.measure.OSRunner] <Info> Space Space 114 in thermal zone Thermal Zone 15 has a zone multiplier of 10. Adjusting area calculations.\n[openstudio.measure.OSRunner] <Info> Space Space 115 in thermal zone Thermal Zone 16 has a zone multiplier of 10. Adjusting area calculations.\n[openstudio.measure.OSRunner] <Info> The model's initial window to wall ratio for All facing exterior walls was 0.29.\n[openstudio.measure.OSRunner] <Info> The model's final window to wall ratio for All facing exterior walls is 0.30. Window area increased by 887 (ft^2). The material and construction costs increased by $0.\n",
            "step_errors" : [],
            "step_files" : [],
            "step_final_condition" : "The model's final window to wall ratio for All facing exterior walls is 0.30. Window area increased by 887 (ft^2). The material and construction costs increased by $0.",
            "step_info" : 
            [
               "Space Space 116 in thermal zone Thermal Zone 17 has a zone multiplier of 10. Adjusting area calculations.",
               "Space Space 110 in thermal zone Thermal Zone 11 has a zone multiplier of 10. Adjusting area calculations.",
               "Space Space 111 in thermal zone Thermal Zone 12 has a zone multiplier of 10. Adjusting area calculations.",
               "Space Space 112 in thermal zone Thermal Zone 5 has a zone multiplier of 10. Adjusting area calculations.",
               "Space Space 113 in thermal zone Thermal Zone 14 has a zone multiplier of 10. Adjusting area calculations.",
               "Space Space 114 in thermal zone Thermal Zone 15 has a zone multiplier of 10. Adjusting area calculations.",
               "Space Space 115 in thermal zone Thermal Zone 16 has a zone multiplier of 10. Adjusting area calculations."
            ],
            "step_initial_condition" : "The model's initial window to wall ratio for All facing exterior walls was 0.29.",
            "step_result" : "Success",
            "step_values" : 
            [
               {
                  "name" : "wwr",
                  "value" : 0.29999999999999999
[...]
                  "units" : "kWh",
                  "value" : 0.0
               },
               {
                  "name" : "district_heating_steam_heat_rejection_ip",
                  "units" : "kWh",
                  "value" : 0.0
               },
               {
                  "name" : "district_heating_steam_humidification_ip",
                  "units" : "kWh",
                  "value" : 0.0
               },
               {
                  "name" : "district_heating_steam_heat_recovery_ip",
                  "units" : "kWh",
                  "value" : 0.0
               },
               {
                  "name" : "district_heating_steam_water_systems_ip",
                  "units" : "kWh",
                  "value" : 0.0
               },
               {
                  "name" : "district_heating_steam_refrigeration_ip",
                  "units" : "kWh",
                  "value" : 0.0
               },
               {
                  "name" : "district_heating_steam_generators_ip",
                  "units" : "kWh",
                  "value" : 0.0
               },
               {
                  "name" : "district_heating_steam_ip",
                  "units" : "kWh",
                  "value" : 0.0
               },
               {
                  "name" : "generic_exterior_wall_pre_1980_6_a",
                  "units" : "m^2",
                  "value" : 61.874399999999902
               },
               {
                  "name" : "surface_10_c_tbd",
                  "units" : "m^2",
                  "value" : 14.935199999999956
               },
               {
                  "name" : "surface_102_c_tbd",
                  "units" : "m^2",
                  "value" : 160.01999999999995
               },
               {
                  "name" : "surface_103_c_tbd",
                  "units" : "m^2",
                  "value" : 149.35199999999975
               },
               {
                  "name" : "surface_104_c_tbd",
                  "units" : "m^2",
                  "value" : 160.01999999999995
               },
               {
                  "name" : "surface_105_c_tbd",
                  "units" : "m^2",
                  "value" : 149.35199999999978
               },
               {
                  "name" : "surface_108_c_tbd",
                  "units" : "m^2",
                  "value" : 14.935199999999975
               },
               {
                  "name" : "surface_109_c_tbd",
                  "units" : "m^2",
                  "value" : 14.935199999999956
               },
               {
                  "name" : "surface_11_c_tbd",
                  "units" : "m^2",
                  "value" : 16.001999999999995
               },
               {
                  "name" : "surface_110_c_tbd",
                  "units" : "m^2",
                  "value" : 14.93519999999998
               },
               {
                  "name" : "surface_111_c_tbd",
                  "units" : "m^2",
                  "value" : 14.935199999999956
               },
               {
                  "name" : "surface_112_c_tbd",
                  "units" : "m^2",
                  "value" : 48.999999999999936
               },
               {
                  "name" : "surface_114_c_tbd",
                  "units" : "m^2",
                  "value" : 16.001999999999995
               },
               {
                  "name" : "surface_115_c_tbd",
                  "units" : "m^2",
                  "value" : 14.935199999999956
               },
               {
                  "name" : "surface_116_c_tbd",
                  "units" : "m^2",
                  "value" : 16.001999999999995
               },
               {
                  "name" : "surface_117_c_tbd",
                  "units" : "m^2",
                  "value" : 14.935199999999956
               },
               {
                  "name" : "surface_118_c_tbd",
                  "units" : "m^2",
                  "value" : 52.499999999999929
               },
               {
                  "name" : "surface_120_c_tbd",
                  "units" : "m^2",
                  "value" : 15.468600000000016
               },
               {
                  "name" : "surface_121_c_tbd",
                  "units" : "m^2",
                  "value" : 14.935199999999975
               },
               {
                  "name" : "surface_122_c_tbd",
                  "units" : "m^2",
                  "value" : 15.468600000000018
               },
               {
                  "name" : "surface_123_c_tbd",
                  "units" : "m^2",
                  "value" : 14.935199999999977
               },
               {
                  "name" : "surface_124_c_tbd",
                  "units" : "m^2",
                  "value" : 50.75
               },
               {
                  "name" : "surface_126_c_tbd",
                  "units" : "m^2",
                  "value" : 16.001999999999995
               },
               {
                  "name" : "surface_127_c_tbd",
                  "units" : "m^2",
                  "value" : 14.935199999999956
               },
               {
                  "name" : "surface_128_c_tbd",
                  "units" : "m^2",
                  "value" : 16.001999999999995
               },
               {
                  "name" : "surface_129_c_tbd",
                  "units" : "m^2",
                  "value" : 14.935199999999956
               },
               {
                  "name" : "surface_130_c_tbd",
                  "units" : "m^2",
                  "value" : 52.499999999999929
               },
               {
                  "name" : "surface_132_c_tbd",
                  "units" : "m^2",
                  "value" : 4.2671999999999937
               },
               {
                  "name" : "surface_133_c_tbd",
                  "units" : "m^2",
                  "value" : 16.001999999999995
               },
               {
                  "name" : "surface_134_c_tbd",
                  "units" : "m^2",
                  "value" : 16.001999999999995
               },
               {
                  "name" : "surface_135_c_tbd",
                  "units" : "m^2",
                  "value" : 14.935199999999977
               },
               {
                  "name" : "surface_136_c_tbd",
                  "units" : "m^2",
                  "value" : 4.2671999999999946
               },
               {
                  "name" : "surface_137_c_tbd",
                  "units" : "m^2",
                  "value" : 15.468600000000018
               },
               {
                  "name" : "surface_138_c_tbd",
                  "units" : "m^2",
                  "value" : 15.468600000000016
               },
               {
                  "name" : "surface_139_c_tbd",
                  "units" : "m^2",
                  "value" : 16.001999999999995
               },
               {
                  "name" : "surface_140_c_tbd",
                  "units" : "m^2",
                  "value" : 44.0
               },
               {
                  "name" : "surface_142_c_tbd",
                  "units" : "m^2",
                  "value" : 15.468600000000016
               },
               {
                  "name" : "surface_143_c_tbd",
                  "units" : "m^2",
                  "value" : 14.935199999999975
               },
               {
                  "name" : "surface_144_c_tbd",
                  "units" : "m^2",
                  "value" : 15.468600000000018
               },
               {
                  "name" : "surface_145_c_tbd",
                  "units" : "m^2",
                  "value" : 14.935199999999977
               },
               {
                  "name" : "surface_146_c_tbd",
                  "units" : "m^2",
                  "value" : 50.75
               },
               {
                  "name" : "surface_148_c_tbd",
                  "units" : "m^2",
                  "value" : 16.001999999999995
               },
               {
                  "name" : "surface_149_c_tbd",
                  "units" : "m^2",
                  "value" : 14.935199999999975
               },
               {
                  "name" : "surface_150_c_tbd",
                  "units" : "m^2",
                  "value" : 16.001999999999995
               },
               {
                  "name" : "surface_151_c_tbd",
                  "units" : "m^2",
                  "value" : 14.935199999999977
               },
               {
                  "name" : "surface_152_c_tbd",
                  "units" : "m^2",
                  "value" : 52.5
               },
               {
                  "name" : "surface_17_c_tbd",
                  "units" : "m^2",
                  "value" : 14.935199999999975
               },
               {
                  "name" : "surface_18_c_tbd",
                  "units" : "m^2",
                  "value" : 15.468600000000018
               },
               {
                  "name" : "surface_2_c_tbd",
                  "units" : "m^2",
                  "value" : 30.937199999999983
               },
               {
                  "name" : "surface_22_c_tbd",
                  "units" : "m^2",
                  "value" : 4.2671999999999937
               },
               {
                  "name" : "surface_26_c_tbd",
                  "units" : "m^2",
                  "value" : 4.2671999999999946
               },
               {
                  "name" : "surface_3_c_tbd",
                  "units" : "m^2",
                  "value" : 34.137599999999978
               },
               {
                  "name" : "surface_32_c_tbd",
                  "units" : "m^2",
                  "value" : 14.935199999999975
               },
               {
                  "name" : "surface_33_c_tbd",
                  "units" : "m^2",
                  "value" : 14.935199999999956
               },
               {
                  "name" : "surface_38_c_tbd",
                  "units" : "m^2",
                  "value" : 16.001999999999995
               },
               {
                  "name" : "surface_4_c_tbd",
                  "units" : "m^2",
                  "value" : 46.939200000000085
               },
               {
                  "name" : "surface_44_c_tbd",
                  "units" : "m^2",
                  "value" : 15.468600000000016
               },
               {
                  "name" : "surface_5_c_tbd",
                  "units" : "m^2",
                  "value" : 19.202400000000054
               },
               {
                  "name" : "surface_50_c_tbd",
                  "units" : "m^2",
                  "value" : 16.001999999999995
               },
               {
                  "name" : "surface_51_c_tbd",
                  "units" : "m^2",
                  "value" : 14.935199999999975
               },
               {
                  "name" : "surface_57_c_tbd",
                  "units" : "m^2",
                  "value" : 14.935199999999956
               },
               {
                  "name" : "surface_58_c_tbd",
                  "units" : "m^2",
                  "value" : 16.001999999999995
               },
               {
                  "name" : "surface_62_c_tbd",
                  "units" : "m^2",
                  "value" : 154.68600000000015
               },
               {
                  "name" : "surface_63_c_tbd",
                  "units" : "m^2",
                  "value" : 149.35199999999975
               },
               {
                  "name" : "surface_64_c_tbd",
                  "units" : "m^2",
                  "value" : 154.68600000000018
               },
               {
                  "name" : "surface_65_c_tbd",
                  "units" : "m^2",
                  "value" : 149.35199999999978
               },
               {
                  "name" : "surface_68_c_tbd",
                  "units" : "m^2",
                  "value" : 160.01999999999995
               },
               {
                  "name" : "surface_69_c_tbd",
                  "units" : "m^2",
                  "value" : 149.35199999999955
               },
               {
                  "name" : "surface_70_c_tbd",
                  "units" : "m^2",
                  "value" : 160.01999999999995
               },
               {
                  "name" : "surface_71_c_tbd",
                  "units" : "m^2",
                  "value" : 149.35199999999955
               },
               {
                  "name" : "surface_74_c_tbd",
                  "units" : "m^2",
                  "value" : 149.35199999999975
               },
               {
                  "name" : "surface_75_c_tbd",
                  "units" : "m^2",
                  "value" : 149.35199999999955
               },
               {
                  "name" : "surface_76_c_tbd",
                  "units" : "m^2",
                  "value" : 149.3519999999998
               },
               {
                  "name" : "surface_77_c_tbd",
                  "units" : "m^2",
                  "value" : 149.35199999999955
               },
               {
                  "name" : "surface_80_c_tbd",
                  "units" : "m^2",
                  "value" : 42.67199999999994
               },
               {
                  "name" : "surface_81_c_tbd",
                  "units" : "m^2",
                  "value" : 160.01999999999995
               },
               {
                  "name" : "surface_82_c_tbd",
                  "units" : "m^2",
                  "value" : 160.01999999999995
               },
               {
                  "name" : "surface_83_c_tbd",
                  "units" : "m^2",
                  "value" : 149.35199999999978
               },
               {
                  "name" : "surface_84_c_tbd",
                  "units" : "m^2",
                  "value" : 42.671999999999947
               },
               {
                  "name" : "surface_85_c_tbd",
                  "units" : "m^2",
                  "value" : 154.68600000000018
               },
               {
                  "name" : "surface_86_c_tbd",
                  "units" : "m^2",
                  "value" : 154.68600000000015
               },
               {
                  "name" : "surface_87_c_tbd",
                  "units" : "m^2",
                  "value" : 160.01999999999995
               },
               {
                  "name" : "surface_90_c_tbd",
                  "units" : "m^2",
                  "value" : 160.01999999999995
               },
               {
                  "name" : "surface_91_c_tbd",
                  "units" : "m^2",
                  "value" : 149.35199999999955
               },
               {
                  "name" : "surface_92_c_tbd",
                  "units" : "m^2",
                  "value" : 160.01999999999995
               },
               {
                  "name" : "surface_93_c_tbd",
                  "units" : "m^2",
                  "value" : 149.35199999999955
               },
               {
                  "name" : "surface_96_c_tbd",
                  "units" : "m^2",
                  "value" : 154.68600000000015
               },
               {
                  "name" : "surface_97_c_tbd",
                  "units" : "m^2",
                  "value" : 149.35199999999975
               },
               {
                  "name" : "surface_98_c_tbd",
                  "units" : "m^2",
                  "value" : 154.68600000000018
               },
               {
                  "name" : "surface_99_c_tbd",
                  "units" : "m^2",
                  "value" : 149.35199999999978
               },
               {
                  "name" : "typical_iead_roof_pre_1980",
                  "units" : "m^2",
                  "value" : 352.00000000000006
               },
               {
                  "name" : "customized_fenestration_u_3_36",
                  "units" : "m^2",
                  "value" : 2378.3544000000034
               },
               {
                  "name" : "gross_window_wall_ratio",
                  "units" : "%",
                  "value" : 30.0
               },
               {
                  "name" : "gross_window_wall_ratio_conditioned",
                  "units" : "%",
                  "value" : 30.0
               },
               {
                  "name" : "skylight_roof_ratio",
                  "units" : "%",
                  "value" : 0.0
               },
               {
                  "name" : "space_type_murb_lobby_1",
                  "units" : "m^2",
                  "value" : 299.50000000000006
               },
               {
                  "name" : "space_type_murb_lobby_2",
                  "units" : "m^2",
                  "value" : 44.0
               },
               {
                  "name" : "space_type_murb_lobby_3",
                  "units" : "m^2",
                  "value" : 525.0
               },
               {
                  "name" : "space_type_murb_lobby_4",
                  "units" : "m^2",
                  "value" : 44.0
               },
               {
                  "name" : "space_type_murb_small",
                  "units" : "m^2",
                  "value" : 52.499999999999929
               },
               {
                  "name" : "space_type_murb_small_1",
                  "units" : "m^2",
                  "value" : 3610.9999999999973
               },
               {
                  "name" : "estar_mfhr_whole_building_water_use_equipment",
                  "units" : "m^3/h",
                  "value" : 0.64800000000000002
               },
               {
                  "name" : "zone_max_hours_over_70_rh",
                  "units" : "hr",
                  "value" : 44.0
               },
               {
                  "name" : "zone_max_hours_over_55_rh",
                  "units" : "hr",
                  "value" : 658.0
               },
               {
                  "name" : "num_zones_x_hours_over_70",
                  "units" : "zones",
                  "value" : 13
               },
               {
                  "name" : "num_zones_x_hours_over_55",
                  "units" : "zones",
                  "value" : 22
               },
               {
                  "name" : "inflation_approach",
                  "value" : "Constant Dollar"
               },
               {
                  "name" : "analysis_length",
                  "units" : "yrs",
                  "value" : 25
               },
               {
                  "name" : "number_of_measures_with_warnings",
                  "value" : 1
               },
               {
                  "name" : "number_warnings",
                  "value" : 3
               },
               {
                  "name" : "annual_peak_electric_demand",
                  "units" : "kW",
                  "value" : 660.74455
               },
               {
                  "name" : "first_year_capital_cost",
                  "units" : "$",
                  "value" : 0.0
               },
               {
                  "name" : "annual_utility_cost",
                  "units" : "$",
                  "value" : 0.0
               },
               {
                  "name" : "total_lifecycle_cost",
                  "units" : "$",
                  "value" : 0.0
               }
            ],
            "step_warnings" : []
         }
      }
   ],
   "updated_at" : "20240717T110451Z",
   "weather_file" : "CAN_PQ_Montreal.Intl.AP.716270_CWEC.epw"
}