Program Version,EnergyPlus, Version 23.2.0-7636e6b3e9, YMD=2024.07.17 07:13
! <Version>, Version ID
 Version, 23.2
! <Timesteps per Hour>, #TimeSteps, Minutes per TimeStep {minutes}
 Timesteps per Hour,  6, 10
! <System Convergence Limits>, Minimum System TimeStep {minutes}, Max HVAC Iterations, Minimum Plant Iterations, Maximum Plant Iterations
 System Convergence Limits, 1, 20, 2, 8
! <Simulation Control>, Do Zone Sizing, Do System Sizing, Do Plant Sizing, Do Design Days, Do Weather Simulation, Do HVAC Sizing Simulation
 Simulation Control, Yes, No, Yes, Yes, Yes, No
! <Performance Precision Tradeoffs>, Use Coil Direct Simulation, Zone Radiant Exchange Algorithm, Override Mode, Number of Timestep In Hour, Force Euler Method, Minimum Number of Warmup Days, Force Suppress All Begin Environment Resets, Minimum System Timestep, MaxZoneTempDiff, MaxAllowedDelTemp
 Performance Precision Tradeoffs, No, ScriptF, Normal, 6, No, 1, No, 1.0, 0.300, 2.0000E-003
! <Output Reporting Tolerances>, Tolerance for Time Heating Setpoint Not Met, Tolerance for Zone Cooling Setpoint Not Met Time
 Output Reporting Tolerances, 0.200, 0.200, 
! <Site:GroundTemperature:BuildingSurface>,Jan{C},Feb{C},Mar{C},Apr{C},May{C},Jun{C},Jul{C},Aug{C},Sep{C},Oct{C},Nov{C},Dec{C}
 Site:GroundTemperature:BuildingSurface,  18.00,  18.00,  18.00,  18.00,  18.00,  18.00,  18.00,  18.00,  18.00,  18.00,  18.00,  18.00
! <Site:GroundTemperature:FCfactorMethod>,Jan{C},Feb{C},Mar{C},Apr{C},May{C},Jun{C},Jul{C},Aug{C},Sep{C},Oct{C},Nov{C},Dec{C}
 Site:GroundTemperature:FCfactorMethod,  -1.50,  -6.19,  -7.46,  -6.35,  -0.03,   7.05,  13.71,  18.53,  19.94,  17.67,  12.21,   5.33
! <Site:GroundTemperature:Shallow>,Jan{C},Feb{C},Mar{C},Apr{C},May{C},Jun{C},Jul{C},Aug{C},Sep{C},Oct{C},Nov{C},Dec{C}
 Site:GroundTemperature:Shallow,  13.00,  13.00,  13.00,  13.00,  13.00,  13.00,  13.00,  13.00,  13.00,  13.00,  13.00,  13.00
! <Site:GroundTemperature:Deep>,Jan{C},Feb{C},Mar{C},Apr{C},May{C},Jun{C},Jul{C},Aug{C},Sep{C},Oct{C},Nov{C},Dec{C}
 Site:GroundTemperature:Deep,  16.00,  16.00,  16.00,  16.00,  16.00,  16.00,  16.00,  16.00,  16.00,  16.00,  16.00,  16.00
! <Site:GroundReflectance>,Jan{dimensionless},Feb{dimensionless},Mar{dimensionless},Apr{dimensionless},May{dimensionless},Jun{dimensionless},Jul{dimensionless},Aug{dimensionless},Sep{dimensionless},Oct{dimensionless},Nov{dimensionless},Dec{dimensionless}
 Site:GroundReflectance,  0.20,  0.20,  0.20,  0.20,  0.20,  0.20,  0.20,  0.20,  0.20,  0.20,  0.20,  0.20
! <Site:GroundReflectance:SnowModifier>, Normal, Daylighting {dimensionless}
 Site:GroundReflectance:SnowModifier,   1.000,   1.000
! <Site:GroundReflectance:Snow>,Jan{dimensionless},Feb{dimensionless},Mar{dimensionless},Apr{dimensionless},May{dimensionless},Jun{dimensionless},Jul{dimensionless},Aug{dimensionless},Sep{dimensionless},Oct{dimensionless},Nov{dimensionless},Dec{dimensionless}
 Site:GroundReflectance:Snow,  0.20,  0.20,  0.20,  0.20,  0.20,  0.20,  0.20,  0.20,  0.20,  0.20,  0.20,  0.20
! <Site:GroundReflectance:Snow:Daylighting>,Jan{dimensionless},Feb{dimensionless},Mar{dimensionless},Apr{dimensionless},May{dimensionless},Jun{dimensionless},Jul{dimensionless},Aug{dimensionless},Sep{dimensionless},Oct{dimensionless},Nov{dimensionless},Dec{dimensionless}
 Site:GroundReflectance:Snow:Daylighting,  0.20,  0.20,  0.20,  0.20,  0.20,  0.20,  0.20,  0.20,  0.20,  0.20,  0.20,  0.20
! <Environment:Weather Station>,Wind Sensor Height Above Ground {m},Wind Speed Profile Exponent {},Wind Speed Profile Boundary Layer Thickness {m},Air Temperature Sensor Height Above Ground {m},Wind Speed Modifier Coefficient-Internal,Temperature Modifier Coefficient-Internal
Environment:Weather Station,10.000,0.140,270.000,1.500,1.586,9.750E-003
! <Site:Location>, Location Name, Latitude {N+/S- Deg}, Longitude {E+/W- Deg},  Time Zone Number {GMT+/-}, Elevation {m},  Standard Pressure at Elevation {Pa}, Standard RhoAir at Elevation
Site:Location,Montreal Int'l PQ CAN WYEC2-B-94792 WMO#=716270,45.47,-73.75,-5.00,36.00,100893,1.1992
! <Site Water Mains Temperature Information>,Calculation Method{},Water Mains Temperature Schedule Name{},Annual Average Outdoor Air Temperature{C},Maximum Difference In Monthly Average Outdoor Air Temperatures{deltaC},Fixed Default Water Mains Temperature{C}
Site Water Mains Temperature Information,FixedDefault,NA,NA,NA,10.0
! <Building Information>, Building Name,North Axis {deg},Terrain,  Loads Convergence Tolerance Value,Temperature Convergence Tolerance Value,  Solar Distribution,Maximum Number of Warmup Days,Minimum Number of Warmup Days
 Building Information,Building 1,0.000,Suburbs,4.00000E-002,0.40000,FullExterior,25,1
! <Inside Convection Algorithm>, Algorithm {Simple | TARP | CeilingDiffuser | AdaptiveConvectionAlgorithm}
Inside Convection Algorithm,TARP
! <Outside Convection Algorithm>, Algorithm {SimpleCombined | TARP | MoWitt | DOE-2 | AdaptiveConvectionAlgorithm}
Outside Convection Algorithm,DOE-2
! <Sky Radiance Distribution>, Value {Anisotropic}
Sky Radiance Distribution,Anisotropic
! <Zone Air Solution Algorithm>, Algorithm {ThirdOrderBackwardDifference | AnalyticalSolution | EulerMethod}, Space Heat Balance Sizing, Space Heat Balance Simulation
 Zone Air Solution Algorithm, AnalyticalSolution, No, No
! <Zone Air Carbon Dioxide Balance Simulation>, Simulation {Yes/No}, Carbon Dioxide Concentration
 Zone Air Carbon Dioxide Balance Simulation, No,N/A
! <Zone Air Generic Contaminant Balance Simulation>, Simulation {Yes/No}, Generic Contaminant Concentration
 Zone Air Generic Contaminant Balance Simulation, No,N/A
! <Zone Air Mass Flow Balance Simulation>, Enforce Mass Balance, Adjust Zone Mixing and Return {AdjustMixingOnly | AdjustReturnOnly | AdjustMixingThenReturn | AdjustReturnThenMixing | None}, Adjust Zone Infiltration {AddInfiltration | AdjustInfiltration | None}, Infiltration Zones {MixingSourceZonesOnly | AllZones}
 Zone Air Mass Flow Balance Simulation, No,N/A,N/A,N/A
! <HVACSystemRootFindingAlgorithm>, Value {RegulaFalsi | Bisection | BisectionThenRegulaFalsi | RegulaFalsiThenBisection}
 HVACSystemRootFindingAlgorithm, RegulaFalsi
! <Environment:Site Atmospheric Variation>,Wind Speed Profile Exponent {},Wind Speed Profile Boundary Layer Thickness {m},Air Temperature Gradient Coefficient {K/m}
Environment:Site Atmospheric Variation,0.220,370.000,6.500000E-003
! <Surface Geometry>,Starting Corner,Vertex Input Direction,Coordinate System,Daylight Reference Point Coordinate System,Rectangular (Simple) Surface Coordinate System
 Surface Geometry,UpperLeftCorner,Counterclockwise,RelativeCoordinateSystem,RelativeCoordinateSystem,RelativeToZoneOrigin
! <Surface Heat Transfer Algorithm>, Value {CTF - ConductionTransferFunction | EMPD - MoisturePenetrationDepthConductionTransferFunction | CondFD - ConductionFiniteDifference | HAMT - CombinedHeatAndMoistureFiniteElement} - Description,Inside Surface Max Temperature Limit{C}, Surface Convection Coefficient Lower Limit {W/m2-K}, Surface Convection Coefficient Upper Limit {W/m2-K}
Surface Heat Transfer Algorithm, CTF - ConductionTransferFunction,200,0.10,1000.0
! <Shading Summary>, Number of Fixed Detached Shades, Number of Building Detached Shades, Number of Attached Shades
 Shading Summary,0,0,0
! <Zone Summary>, Number of Zones, Number of Zone Surfaces, Number of SubSurfaces
 Zone Summary,44,528,220
! <Zone Information>,Zone Name,North Axis {deg},Origin X-Coordinate {m},Origin Y-Coordinate {m},Origin Z-Coordinate {m},Centroid X-Coordinate {m},Centroid Y-Coordinate {m},Centroid Z-Coordinate {m},Type,Zone Multiplier,Zone List Multiplier,Minimum X {m},Maximum X {m},Minimum Y {m},Maximum Y {m},Minimum Z {m},Maximum Z {m},Ceiling Height {m},Volume {m3},Zone Inside Convection Algorithm {Simple-Detailed-CeilingDiffuser-TrombeWall},Zone Outside Convection Algorithm {Simple-Detailed-Tarp-MoWitt-DOE-2-BLAST}, Floor Area {m2},Exterior Gross Wall Area {m2},Exterior Net Wall Area {m2},Exterior Window Area {m2}, Number of Surfaces, Number of SubSurfaces, Number of Shading SubSurfaces,  Part of Total Building Area
 Zone Information, THERMAL ZONE 1,0.0,0.00,24.00,0.00,5.25,28.00,1.52,1,1,1,0.00,10.50,24.00,32.00,0.00,3.05,3.05,256.03,TARP,DOE-2,84.00,112.78,75.74,37.03,6,4,0,Yes
 Zone Information, THERMAL ZONE 10,0.0,23.00,16.00,0.00,17.75,12.00,1.52,1,1,1,12.50,23.00,8.00,16.00,0.00,3.05,3.05,256.03,TARP,DOE-2,84.00,112.78,75.74,37.03,6,4,0,Yes
 Zone Information, THERMAL ZONE 11,0.0,0.00,16.00,0.00,5.25,20.00,1.52,1,1,1,0.00,10.50,16.00,24.00,0.00,3.05,3.05,256.03,TARP,DOE-2,84.00,112.78,75.74,37.03,6,4,0,Yes
 Zone Information, THERMAL ZONE 12,0.0,12.50,32.00,3.05,17.75,36.00,4.57,1,1,1,12.50,23.00,32.00,40.00,3.05,6.10,3.05,256.03,TARP,DOE-2,84.00,112.78,75.74,37.03,6,4,0,Yes
 Zone Information, THERMAL ZONE 13,0.0,0.00,16.00,3.05,5.25,20.00,4.57,1,1,1,0.00,10.50,16.00,24.00,3.05,6.10,3.05,256.03,TARP,DOE-2,84.00,112.78,75.74,37.03,6,4,0,Yes
 Zone Information, THERMAL ZONE 14,0.0,0.00,32.00,0.00,5.25,36.00,1.52,1,1,1,0.00,10.50,32.00,40.00,0.00,3.05,3.05,256.03,TARP,DOE-2,84.00,112.78,75.74,37.03,6,4,0,Yes
 Zone Information, THERMAL ZONE 15,0.0,12.50,32.00,0.00,17.75,36.00,1.52,1,1,1,12.50,23.00,32.00,40.00,0.00,3.05,3.05,256.03,TARP,DOE-2,84.00,112.78,75.74,37.03,6,4,0,Yes
 Zone Information, THERMAL ZONE 16,0.0,10.50,8.00,3.05,5.25,4.00,4.57,1,1,1,0.00,10.50,0.00,8.00,3.05,6.10,3.05,256.03,TARP,DOE-2,84.00,112.78,75.74,37.03,7,5,0,Yes
 Zone Information, THERMAL ZONE 17,0.0,12.50,0.00,39.14,11.50,20.00,40.67,1,1,1,10.50,12.50,0.00,40.00,39.14,42.19,3.05,243.84,TARP,DOE-2,80.00,256.03,178.61,77.42,15,13,0,Yes
 Zone Information, THERMAL ZONE 18,0.0,0.00,8.00,3.05,5.25,12.00,4.57,1,1,1,0.00,10.50,8.00,16.00,3.05,6.10,3.05,256.03,TARP,DOE-2,84.00,112.78,75.74,37.03,6,4,0,Yes
 Zone Information, THERMAL ZONE 19,0.0,23.00,8.00,3.05,17.75,4.00,4.57,1,1,1,12.50,23.00,0.00,8.00,3.05,6.10,3.05,256.03,TARP,DOE-2,84.00,112.78,75.74,37.03,7,5,0,Yes
 Zone Information, THERMAL ZONE 2,0.0,10.50,8.00,0.00,5.25,4.00,1.52,1,1,1,0.00,10.50,0.00,8.00,0.00,3.05,3.05,256.03,TARP,DOE-2,84.00,112.78,75.74,37.03,7,5,0,Yes
 Zone Information, THERMAL ZONE 20,0.0,23.00,16.00,3.05,17.75,12.00,4.57,1,1,1,12.50,23.00,8.00,16.00,3.05,6.10,3.05,256.03,TARP,DOE-2,84.00,112.78,75.74,37.03,6,4,0,Yes
 Zone Information, THERMAL ZONE 21,0.0,23.00,24.00,3.05,17.75,20.00,4.57,1,1,1,12.50,23.00,16.00,24.00,3.05,6.10,3.05,256.03,TARP,DOE-2,84.00,112.78,75.74,37.03,6,4,0,Yes
 Zone Information, THERMAL ZONE 22,0.0,23.00,16.00,39.14,17.75,12.00,40.67,1,1,1,12.50,23.00,8.00,16.00,39.14,42.19,3.05,256.03,TARP,DOE-2,84.00,112.78,75.74,37.03,6,4,0,Yes
 Zone Information, THERMAL ZONE 23,0.0,12.50,32.00,39.14,17.75,36.00,40.67,1,1,1,12.50,23.00,32.00,40.00,39.14,42.19,3.05,256.03,TARP,DOE-2,84.00,112.78,75.74,37.03,6,4,0,Yes
 Zone Information, THERMAL ZONE 24,0.0,0.00,24.00,3.05,5.25,28.00,4.57,1,1,1,0.00,10.50,24.00,32.00,3.05,6.10,3.05,256.03,TARP,DOE-2,84.00,112.78,75.74,37.03,6,4,0,Yes
 Zone Information, THERMAL ZONE 25,0.0,23.00,32.00,3.05,17.75,28.00,4.57,1,1,1,12.50,23.00,24.00,32.00,3.05,6.10,3.05,256.03,TARP,DOE-2,84.00,112.78,75.74,37.03,6,4,0,Yes
 Zone Information, THERMAL ZONE 26,0.0,23.00,8.00,21.10,17.75,4.00,22.62,1,1,1,12.50,23.00,0.00,8.00,21.10,24.14,3.05,256.03,TARP,DOE-2,84.00,112.78,75.74,37.03,7,5,0,Yes
 Zone Information, THERMAL ZONE 27,0.0,0.00,32.00,3.05,5.25,36.00,4.57,1,1,1,0.00,10.50,32.00,40.00,3.05,6.10,3.05,256.03,TARP,DOE-2,84.00,112.78,75.74,37.03,6,4,0,Yes
 Zone Information, THERMAL ZONE 28,0.0,10.50,8.00,21.10,5.25,4.00,22.62,1,1,1,0.00,10.50,0.00,8.00,21.10,24.14,3.05,256.03,TARP,DOE-2,84.00,112.78,75.74,37.03,7,5,0,Yes
 Zone Information, THERMAL ZONE 29,0.0,0.00,24.00,21.10,5.25,28.00,22.62,1,1,1,0.00,10.50,24.00,32.00,21.10,24.14,3.05,256.03,TARP,DOE-2,84.00,112.78,75.74,37.03,6,4,0,Yes
 Zone Information, THERMAL ZONE 3,0.0,12.50,0.00,0.00,11.50,20.00,1.52,1,1,1,10.50,12.50,0.00,40.00,0.00,3.05,3.05,243.84,TARP,DOE-2,80.00,256.03,178.61,77.42,15,13,0,Yes
 Zone Information, THERMAL ZONE 30,0.0,0.00,32.00,21.10,5.25,36.00,22.62,1,1,1,0.00,10.50,32.00,40.00,21.10,24.14,3.05,256.03,TARP,DOE-2,84.00,112.78,75.74,37.03,6,4,0,Yes
 Zone Information, THERMAL ZONE 31,0.0,0.00,8.00,21.10,5.25,12.00,22.62,1,1,1,0.00,10.50,8.00,16.00,21.10,24.14,3.05,256.03,TARP,DOE-2,84.00,112.78,75.74,37.03,6,4,0,Yes
 Zone Information, THERMAL ZONE 32,0.0,23.00,32.00,21.10,17.75,28.00,22.62,1,1,1,12.50,23.00,24.00,32.00,21.10,24.14,3.05,256.03,TARP,DOE-2,84.00,112.78,75.74,37.03,6,4,0,Yes
 Zone Information, THERMAL ZONE 33,0.0,12.50,32.00,21.10,17.75,36.00,22.62,1,1,1,12.50,23.00,32.00,40.00,21.10,24.14,3.05,256.03,TARP,DOE-2,84.00,112.78,75.74,37.03,6,4,0,Yes
 Zone Information, THERMAL ZONE 34,0.0,23.00,24.00,21.10,17.75,20.00,22.62,1,1,1,12.50,23.00,16.00,24.00,21.10,24.14,3.05,256.03,TARP,DOE-2,84.00,112.78,75.74,37.03,6,4,0,Yes
 Zone Information, THERMAL ZONE 35,0.0,0.00,16.00,21.10,5.25,20.00,22.62,1,1,1,0.00,10.50,16.00,24.00,21.10,24.14,3.05,256.03,TARP,DOE-2,84.00,112.78,75.74,37.03,6,4,0,Yes
 Zone Information, THERMAL ZONE 36,0.0,23.00,16.00,21.10,17.75,12.00,22.62,1,1,1,12.50,23.00,8.00,16.00,21.10,24.14,3.05,256.03,TARP,DOE-2,84.00,112.78,75.74,37.03,6,4,0,Yes
 Zone Information, THERMAL ZONE 37,0.0,12.50,0.00,21.10,11.50,20.00,22.62,1,1,1,10.50,12.50,0.00,40.00,21.10,24.14,3.05,243.84,TARP,DOE-2,80.00,256.03,178.61,77.42,15,13,0,Yes
 Zone Information, THERMAL ZONE 38,0.0,23.00,24.00,39.14,17.75,20.00,40.67,1,1,1,12.50,23.00,16.00,24.00,39.14,42.19,3.05,256.03,TARP,DOE-2,84.00,112.78,75.74,37.03,6,4,0,Yes
 Zone Information, THERMAL ZONE 39,0.0,10.50,8.00,39.14,5.25,4.00,40.67,1,1,1,0.00,10.50,0.00,8.00,39.14,42.19,3.05,256.03,TARP,DOE-2,84.00,112.78,75.74,37.03,7,5,0,Yes
 Zone Information, THERMAL ZONE 4,0.0,23.00,8.00,0.00,17.75,4.00,1.52,1,1,1,12.50,23.00,0.00,8.00,0.00,3.05,3.05,256.03,TARP,DOE-2,84.00,112.78,75.74,37.03,7,5,0,Yes
 Zone Information, THERMAL ZONE 40,0.0,0.00,8.00,39.14,5.25,12.00,40.67,1,1,1,0.00,10.50,8.00,16.00,39.14,42.19,3.05,256.03,TARP,DOE-2,84.00,112.78,75.74,37.03,6,4,0,Yes
 Zone Information, THERMAL ZONE 41,0.0,0.00,24.00,39.14,5.25,28.00,40.67,1,1,1,0.00,10.50,24.00,32.00,39.14,42.19,3.05,256.03,TARP,DOE-2,84.00,112.78,75.74,37.03,6,4,0,Yes
 Zone Information, THERMAL ZONE 42,0.0,0.00,32.00,39.14,5.25,36.00,40.67,1,1,1,0.00,10.50,32.00,40.00,39.14,42.19,3.05,256.03,TARP,DOE-2,84.00,112.78,75.74,37.03,6,4,0,Yes
 Zone Information, THERMAL ZONE 43,0.0,0.00,16.00,39.14,5.25,20.00,40.67,1,1,1,0.00,10.50,16.00,24.00,39.14,42.19,3.05,256.03,TARP,DOE-2,84.00,112.78,75.74,37.03,6,4,0,Yes
 Zone Information, THERMAL ZONE 44,0.0,23.00,8.00,39.14,17.75,4.00,40.67,1,1,1,12.50,23.00,0.00,8.00,39.14,42.19,3.05,256.03,TARP,DOE-2,84.00,112.78,75.74,37.03,7,5,0,Yes
 Zone Information, THERMAL ZONE 5,0.0,0.00,8.00,0.00,5.25,12.00,1.52,1,1,1,0.00,10.50,8.00,16.00,0.00,3.05,3.05,256.03,TARP,DOE-2,84.00,112.78,75.74,37.03,6,4,0,Yes
 Zone Information, THERMAL ZONE 6,0.0,23.00,32.00,39.14,17.75,28.00,40.67,1,1,1,12.50,23.00,24.00,32.00,39.14,42.19,3.05,256.03,TARP,DOE-2,84.00,112.78,75.74,37.03,6,4,0,Yes
 Zone Information, THERMAL ZONE 7,0.0,12.50,0.00,3.05,11.50,20.00,4.57,1,1,1,10.50,12.50,0.00,40.00,3.05,6.10,3.05,243.84,TARP,DOE-2,80.00,256.03,178.61,77.42,15,13,0,Yes
 Zone Information, THERMAL ZONE 8,0.0,23.00,32.00,0.00,17.75,28.00,1.52,1,1,1,12.50,23.00,24.00,32.00,0.00,3.05,3.05,256.03,TARP,DOE-2,84.00,112.78,75.74,37.03,6,4,0,Yes
 Zone Information, THERMAL ZONE 9,0.0,23.00,24.00,0.00,17.75,20.00,1.52,1,1,1,12.50,23.00,16.00,24.00,0.00,3.05,3.05,256.03,TARP,DOE-2,84.00,112.78,75.74,37.03,6,4,0,Yes
! <Zone Internal Gains Nominal>,Zone Name, Floor Area {m2},# Occupants,Area per Occupant {m2/person},Occupant per Area {person/m2},Interior Lighting {W/m2},Electric Load {W/m2},Gas Load {W/m2},Other Load {W/m2},Hot Water Eq {W/m2},Steam Equipment {W/m2},Sum Loads per Area {W/m2},Outdoor Controlled Baseboard Heat
 Zone Internal Gains Nominal, THERMAL ZONE 1,84.00,2.4,35.324,2.831E-002,0.000,8.150,0.000,0.000,0.000,0.000,8.150,No
 Zone Internal Gains Nominal, THERMAL ZONE 10,84.00,2.4,35.324,2.831E-002,0.000,8.150,0.000,0.000,0.000,0.000,8.150,No
 Zone Internal Gains Nominal, THERMAL ZONE 11,84.00,2.4,35.324,2.831E-002,0.000,8.150,0.000,0.000,0.000,0.000,8.150,No
 Zone Internal Gains Nominal, THERMAL ZONE 12,84.00,2.4,35.324,2.831E-002,0.000,8.150,0.000,0.000,0.000,0.000,8.150,No
 Zone Internal Gains Nominal, THERMAL ZONE 13,84.00,2.4,35.324,2.831E-002,0.000,8.150,0.000,0.000,0.000,0.000,8.150,No
 Zone Internal Gains Nominal, THERMAL ZONE 14,84.00,2.4,35.324,2.831E-002,0.000,8.150,0.000,0.000,0.000,0.000,8.150,No
 Zone Internal Gains Nominal, THERMAL ZONE 15,84.00,2.4,35.324,2.831E-002,0.000,8.150,0.000,0.000,0.000,0.000,8.150,No
 Zone Internal Gains Nominal, THERMAL ZONE 16,84.00,2.4,35.324,2.831E-002,0.000,8.150,0.000,0.000,0.000,0.000,8.150,No
 Zone Internal Gains Nominal, THERMAL ZONE 17,80.00,0.0,N/A,0.000,0.000,0.000,0.000,0.000,0.000,0.000,0.000,No
 Zone Internal Gains Nominal, THERMAL ZONE 18,84.00,2.4,35.324,2.831E-002,0.000,8.150,0.000,0.000,0.000,0.000,8.150,No
 Zone Internal Gains Nominal, THERMAL ZONE 19,84.00,2.4,35.324,2.831E-002,0.000,8.150,0.000,0.000,0.000,0.000,8.150,No
 Zone Internal Gains Nominal, THERMAL ZONE 2,84.00,2.4,35.324,2.831E-002,0.000,8.150,0.000,0.000,0.000,0.000,8.150,No
 Zone Internal Gains Nominal, THERMAL ZONE 20,84.00,2.4,35.324,2.831E-002,0.000,8.150,0.000,0.000,0.000,0.000,8.150,No
 Zone Internal Gains Nominal, THERMAL ZONE 21,84.00,2.4,35.324,2.831E-002,0.000,8.150,0.000,0.000,0.000,0.000,8.150,No
 Zone Internal Gains Nominal, THERMAL ZONE 22,84.00,2.4,35.324,2.831E-002,0.000,8.150,0.000,0.000,0.000,0.000,8.150,No
 Zone Internal Gains Nominal, THERMAL ZONE 23,84.00,2.4,35.324,2.831E-002,0.000,8.150,0.000,0.000,0.000,0.000,8.150,No
 Zone Internal Gains Nominal, THERMAL ZONE 24,84.00,2.4,35.324,2.831E-002,0.000,8.150,0.000,0.000,0.000,0.000,8.150,No
 Zone Internal Gains Nominal, THERMAL ZONE 25,84.00,2.4,35.324,2.831E-002,0.000,8.150,0.000,0.000,0.000,0.000,8.150,No
 Zone Internal Gains Nominal, THERMAL ZONE 26,84.00,2.4,35.324,2.831E-002,0.000,8.150,0.000,0.000,0.000,0.000,8.150,No
 Zone Internal Gains Nominal, THERMAL ZONE 27,84.00,2.4,35.324,2.831E-002,0.000,8.150,0.000,0.000,0.000,0.000,8.150,No
 Zone Internal Gains Nominal, THERMAL ZONE 28,84.00,2.4,35.324,2.831E-002,0.000,8.150,0.000,0.000,0.000,0.000,8.150,No
 Zone Internal Gains Nominal, THERMAL ZONE 29,84.00,2.4,35.324,2.831E-002,0.000,8.150,0.000,0.000,0.000,0.000,8.150,No
 Zone Internal Gains Nominal, THERMAL ZONE 3,80.00,0.0,N/A,0.000,0.000,0.000,0.000,0.000,0.000,0.000,0.000,No
 Zone Internal Gains Nominal, THERMAL ZONE 30,84.00,2.4,35.324,2.831E-002,0.000,8.150,0.000,0.000,0.000,0.000,8.150,No
 Zone Internal Gains Nominal, THERMAL ZONE 31,84.00,2.4,35.324,2.831E-002,0.000,8.150,0.000,0.000,0.000,0.000,8.150,No
 Zone Internal Gains Nominal, THERMAL ZONE 32,84.00,2.4,35.324,2.831E-002,0.000,8.150,0.000,0.000,0.000,0.000,8.150,No
 Zone Internal Gains Nominal, THERMAL ZONE 33,84.00,2.4,35.324,2.831E-002,0.000,8.150,0.000,0.000,0.000,0.000,8.150,No
 Zone Internal Gains Nominal, THERMAL ZONE 34,84.00,2.4,35.324,2.831E-002,0.000,8.150,0.000,0.000,0.000,0.000,8.150,No
 Zone Internal Gains Nominal, THERMAL ZONE 35,84.00,2.4,35.324,2.831E-002,0.000,8.150,0.000,0.000,0.000,0.000,8.150,No
 Zone Internal Gains Nominal, THERMAL ZONE 36,84.00,2.4,35.324,2.831E-002,0.000,8.150,0.000,0.000,0.000,0.000,8.150,No
 Zone Internal Gains Nominal, THERMAL ZONE 37,80.00,0.0,N/A,0.000,0.000,0.000,0.000,0.000,0.000,0.000,0.000,No
 Zone Internal Gains Nominal, THERMAL ZONE 38,84.00,2.4,35.324,2.831E-002,0.000,8.150,0.000,0.000,0.000,0.000,8.150,No
 Zone Internal Gains Nominal, THERMAL ZONE 39,84.00,2.4,35.324,2.831E-002,0.000,8.150,0.000,0.000,0.000,0.000,8.150,No
 Zone Internal Gains Nominal, THERMAL ZONE 4,84.00,2.4,35.324,2.831E-002,0.000,8.150,0.000,0.000,0.000,0.000,8.150,No
 Zone Internal Gains Nominal, THERMAL ZONE 40,84.00,2.4,35.324,2.831E-002,0.000,8.150,0.000,0.000,0.000,0.000,8.150,No
 Zone Internal Gains Nominal, THERMAL ZONE 41,84.00,2.4,35.324,2.831E-002,0.000,8.150,0.000,0.000,0.000,0.000,8.150,No
 Zone Internal Gains Nominal, THERMAL ZONE 42,84.00,2.4,35.324,2.831E-002,0.000,8.150,0.000,0.000,0.000,0.000,8.150,No
 Zone Internal Gains Nominal, THERMAL ZONE 43,84.00,2.4,35.324,2.831E-002,0.000,8.150,0.000,0.000,0.000,0.000,8.150,No
 Zone Internal Gains Nominal, THERMAL ZONE 44,84.00,2.4,35.324,2.831E-002,0.000,8.150,0.000,0.000,0.000,0.000,8.150,No
 Zone Internal Gains Nominal, THERMAL ZONE 5,84.00,2.4,35.324,2.831E-002,0.000,8.150,0.000,0.000,0.000,0.000,8.150,No
 Zone Internal Gains Nominal, THERMAL ZONE 6,84.00,2.4,35.324,2.831E-002,0.000,8.150,0.000,0.000,0.000,0.000,8.150,No
 Zone Internal Gains Nominal, THERMAL ZONE 7,80.00,0.0,N/A,0.000,0.000,0.000,0.000,0.000,0.000,0.000,0.000,No
 Zone Internal Gains Nominal, THERMAL ZONE 8,84.00,2.4,35.324,2.831E-002,0.000,8.150,0.000,0.000,0.000,0.000,8.150,No
 Zone Internal Gains Nominal, THERMAL ZONE 9,84.00,2.4,35.324,2.831E-002,0.000,8.150,0.000,0.000,0.000,0.000,8.150,No
! <People Internal Gains Nominal>,Name,Schedule Name,Zone Name,Zone Floor Area {m2},# Zone Occupants,Number of People {},People/Floor Area {person/m2},Floor Area per person {m2/person},Fraction Radiant,Fraction Convected,Sensible Fraction Calculation,Activity level,ASHRAE 55 Warnings,Carbon Dioxide Generation Rate,Nominal Minimum Number of People,Nominal Maximum Number of People
 People Internal Gains Nominal, SPACE 108 PEOPLE 3,MIDRISEAPARTMENT APARTMENT OCC 3,THERMAL ZONE 1,84.00,2.4,2.4,2.831E-002,35.324,0.300,0.700,AutoCalculate,MIDRISEAPARTMENT ACTIVITY 3,No,3.8200E-008,1,2
 People Internal Gains Nominal, SPACE 101 PEOPLE 3,MIDRISEAPARTMENT APARTMENT OCC 3,THERMAL ZONE 2,84.00,2.4,2.4,2.831E-002,35.324,0.300,0.700,AutoCalculate,MIDRISEAPARTMENT ACTIVITY 3,No,3.8200E-008,1,2
 People Internal Gains Nominal, SPACE 103 PEOPLE 3,MIDRISEAPARTMENT APARTMENT OCC 3,THERMAL ZONE 4,84.00,2.4,2.4,2.831E-002,35.324,0.300,0.700,AutoCalculate,MIDRISEAPARTMENT ACTIVITY 3,No,3.8200E-008,1,2
 People Internal Gains Nominal, SPACE 104 PEOPLE 3,MIDRISEAPARTMENT APARTMENT OCC 3,THERMAL ZONE 5,84.00,2.4,2.4,2.831E-002,35.324,0.300,0.700,AutoCalculate,MIDRISEAPARTMENT ACTIVITY 3,No,3.8200E-008,1,2
 People Internal Gains Nominal, SPACE 230 PEOPLE 3,MIDRISEAPARTMENT APARTMENT OCC 3,THERMAL ZONE 6,84.00,2.4,2.4,2.831E-002,35.324,0.300,0.700,AutoCalculate,MIDRISEAPARTMENT ACTIVITY 3,No,3.8200E-008,1,2
 People Internal Gains Nominal, SPACE 109 PEOPLE 3,MIDRISEAPARTMENT APARTMENT OCC 3,THERMAL ZONE 8,84.00,2.4,2.4,2.831E-002,35.324,0.300,0.700,AutoCalculate,MIDRISEAPARTMENT ACTIVITY 3,No,3.8200E-008,1,2
 People Internal Gains Nominal, SPACE 107 PEOPLE 3,MIDRISEAPARTMENT APARTMENT OCC 3,THERMAL ZONE 9,84.00,2.4,2.4,2.831E-002,35.324,0.300,0.700,AutoCalculate,MIDRISEAPARTMENT ACTIVITY 3,No,3.8200E-008,1,2
 People Internal Gains Nominal, SPACE 105 PEOPLE 3,MIDRISEAPARTMENT APARTMENT OCC 3,THERMAL ZONE 10,84.00,2.4,2.4,2.831E-002,35.324,0.300,0.700,AutoCalculate,MIDRISEAPARTMENT ACTIVITY 3,No,3.8200E-008,1,2
 People Internal Gains Nominal, SPACE 106 PEOPLE 3,MIDRISEAPARTMENT APARTMENT OCC 3,THERMAL ZONE 11,84.00,2.4,2.4,2.831E-002,35.324,0.300,0.700,AutoCalculate,MIDRISEAPARTMENT ACTIVITY 3,No,3.8200E-008,1,2
 People Internal Gains Nominal, SPACE 211 PEOPLE 3,MIDRISEAPARTMENT APARTMENT OCC 3,THERMAL ZONE 12,84.00,2.4,2.4,2.831E-002,35.324,0.300,0.700,AutoCalculate,MIDRISEAPARTMENT ACTIVITY 3,No,3.8200E-008,1,2
 People Internal Gains Nominal, SPACE 206 PEOPLE 3,MIDRISEAPARTMENT APARTMENT OCC 3,THERMAL ZONE 13,84.00,2.4,2.4,2.831E-002,35.324,0.300,0.700,AutoCalculate,MIDRISEAPARTMENT ACTIVITY 3,No,3.8200E-008,1,2
 People Internal Gains Nominal, SPACE 110 PEOPLE 3,MIDRISEAPARTMENT APARTMENT OCC 3,THERMAL ZONE 14,84.00,2.4,2.4,2.831E-002,35.324,0.300,0.700,AutoCalculate,MIDRISEAPARTMENT ACTIVITY 3,No,3.8200E-008,1,2
 People Internal Gains Nominal, SPACE 111 PEOPLE 3,MIDRISEAPARTMENT APARTMENT OCC 3,THERMAL ZONE 15,84.00,2.4,2.4,2.831E-002,35.324,0.300,0.700,AutoCalculate,MIDRISEAPARTMENT ACTIVITY 3,No,3.8200E-008,1,2
 People Internal Gains Nominal, SPACE 201 PEOPLE 3,MIDRISEAPARTMENT APARTMENT OCC 3,THERMAL ZONE 16,84.00,2.4,2.4,2.831E-002,35.324,0.300,0.700,AutoCalculate,MIDRISEAPARTMENT ACTIVITY 3,No,3.8200E-008,1,2
 People Internal Gains Nominal, SPACE 204 PEOPLE 3,MIDRISEAPARTMENT APARTMENT OCC 3,THERMAL ZONE 18,84.00,2.4,2.4,2.831E-002,35.324,0.300,0.700,AutoCalculate,MIDRISEAPARTMENT ACTIVITY 3,No,3.8200E-008,1,2
 People Internal Gains Nominal, SPACE 203 PEOPLE 3,MIDRISEAPARTMENT APARTMENT OCC 3,THERMAL ZONE 19,84.00,2.4,2.4,2.831E-002,35.324,0.300,0.700,AutoCalculate,MIDRISEAPARTMENT ACTIVITY 3,No,3.8200E-008,1,2
 People Internal Gains Nominal, SPACE 205 PEOPLE 3,MIDRISEAPARTMENT APARTMENT OCC 3,THERMAL ZONE 20,84.00,2.4,2.4,2.831E-002,35.324,0.300,0.700,AutoCalculate,MIDRISEAPARTMENT ACTIVITY 3,No,3.8200E-008,1,2
 People Internal Gains Nominal, SPACE 207 PEOPLE 3,MIDRISEAPARTMENT APARTMENT OCC 3,THERMAL ZONE 21,84.00,2.4,2.4,2.831E-002,35.324,0.300,0.700,AutoCalculate,MIDRISEAPARTMENT ACTIVITY 3,No,3.8200E-008,1,2
 People Internal Gains Nominal, SPACE 229 PEOPLE 3,MIDRISEAPARTMENT APARTMENT OCC 3,THERMAL ZONE 22,84.00,2.4,2.4,2.831E-002,35.324,0.300,0.700,AutoCalculate,MIDRISEAPARTMENT ACTIVITY 3,No,3.8200E-008,1,2
 People Internal Gains Nominal, SPACE 226 PEOPLE 3,MIDRISEAPARTMENT APARTMENT OCC 3,THERMAL ZONE 23,84.00,2.4,2.4,2.831E-002,35.324,0.300,0.700,AutoCalculate,MIDRISEAPARTMENT ACTIVITY 3,No,3.8200E-008,1,2
 People Internal Gains Nominal, SPACE 208 PEOPLE 3,MIDRISEAPARTMENT APARTMENT OCC 3,THERMAL ZONE 24,84.00,2.4,2.4,2.831E-002,35.324,0.300,0.700,AutoCalculate,MIDRISEAPARTMENT ACTIVITY 3,No,3.8200E-008,1,2
 People Internal Gains Nominal, SPACE 209 PEOPLE 3,MIDRISEAPARTMENT APARTMENT OCC 3,THERMAL ZONE 25,84.00,2.4,2.4,2.831E-002,35.324,0.300,0.700,AutoCalculate,MIDRISEAPARTMENT ACTIVITY 3,No,3.8200E-008,1,2
 People Internal Gains Nominal, SPACE 219 PEOPLE 3,MIDRISEAPARTMENT APARTMENT OCC 3,THERMAL ZONE 26,84.00,2.4,2.4,2.831E-002,35.324,0.300,0.700,AutoCalculate,MIDRISEAPARTMENT ACTIVITY 3,No,3.8200E-008,1,2
 People Internal Gains Nominal, SPACE 210 PEOPLE 3,MIDRISEAPARTMENT APARTMENT OCC 3,THERMAL ZONE 27,84.00,2.4,2.4,2.831E-002,35.324,0.300,0.700,AutoCalculate,MIDRISEAPARTMENT ACTIVITY 3,No,3.8200E-008,1,2
 People Internal Gains Nominal, SPACE 212 PEOPLE 3,MIDRISEAPARTMENT APARTMENT OCC 3,THERMAL ZONE 28,84.00,2.4,2.4,2.831E-002,35.324,0.300,0.700,AutoCalculate,MIDRISEAPARTMENT ACTIVITY 3,No,3.8200E-008,1,2
 People Internal Gains Nominal, SPACE 213 PEOPLE 3,MIDRISEAPARTMENT APARTMENT OCC 3,THERMAL ZONE 29,84.00,2.4,2.4,2.831E-002,35.324,0.300,0.700,AutoCalculate,MIDRISEAPARTMENT ACTIVITY 3,No,3.8200E-008,1,2
 People Internal Gains Nominal, SPACE 214 PEOPLE 3,MIDRISEAPARTMENT APARTMENT OCC 3,THERMAL ZONE 30,84.00,2.4,2.4,2.831E-002,35.324,0.300,0.700,AutoCalculate,MIDRISEAPARTMENT ACTIVITY 3,No,3.8200E-008,1,2
 People Internal Gains Nominal, SPACE 218 PEOPLE 3,MIDRISEAPARTMENT APARTMENT OCC 3,THERMAL ZONE 31,84.00,2.4,2.4,2.831E-002,35.324,0.300,0.700,AutoCalculate,MIDRISEAPARTMENT ACTIVITY 3,No,3.8200E-008,1,2
 People Internal Gains Nominal, SPACE 215 PEOPLE 3,MIDRISEAPARTMENT APARTMENT OCC 3,THERMAL ZONE 32,84.00,2.4,2.4,2.831E-002,35.324,0.300,0.700,AutoCalculate,MIDRISEAPARTMENT ACTIVITY 3,No,3.8200E-008,1,2
 People Internal Gains Nominal, SPACE 216 PEOPLE 3,MIDRISEAPARTMENT APARTMENT OCC 3,THERMAL ZONE 33,84.00,2.4,2.4,2.831E-002,35.324,0.300,0.700,AutoCalculate,MIDRISEAPARTMENT ACTIVITY 3,No,3.8200E-008,1,2
 People Internal Gains Nominal, SPACE 217 PEOPLE 3,MIDRISEAPARTMENT APARTMENT OCC 3,THERMAL ZONE 34,84.00,2.4,2.4,2.831E-002,35.324,0.300,0.700,AutoCalculate,MIDRISEAPARTMENT ACTIVITY 3,No,3.8200E-008,1,2
 People Internal Gains Nominal, SPACE 220 PEOPLE 3,MIDRISEAPARTMENT APARTMENT OCC 3,THERMAL ZONE 35,84.00,2.4,2.4,2.831E-002,35.324,0.300,0.700,AutoCalculate,MIDRISEAPARTMENT ACTIVITY 3,No,3.8200E-008,1,2
 People Internal Gains Nominal, SPACE 221 PEOPLE 3,MIDRISEAPARTMENT APARTMENT OCC 3,THERMAL ZONE 36,84.00,2.4,2.4,2.831E-002,35.324,0.300,0.700,AutoCalculate,MIDRISEAPARTMENT ACTIVITY 3,No,3.8200E-008,1,2
 People Internal Gains Nominal, SPACE 223 PEOPLE 3,MIDRISEAPARTMENT APARTMENT OCC 3,THERMAL ZONE 38,84.00,2.4,2.4,2.831E-002,35.324,0.300,0.700,AutoCalculate,MIDRISEAPARTMENT ACTIVITY 3,No,3.8200E-008,1,2
 People Internal Gains Nominal, SPACE 224 PEOPLE 3,MIDRISEAPARTMENT APARTMENT OCC 3,THERMAL ZONE 39,84.00,2.4,2.4,2.831E-002,35.324,0.300,0.700,AutoCalculate,MIDRISEAPARTMENT ACTIVITY 3,No,3.8200E-008,1,2
 People Internal Gains Nominal, SPACE 225 PEOPLE 3,MIDRISEAPARTMENT APARTMENT OCC 3,THERMAL ZONE 40,84.00,2.4,2.4,2.831E-002,35.324,0.300,0.700,AutoCalculate,MIDRISEAPARTMENT ACTIVITY 3,No,3.8200E-008,1,2
 People Internal Gains Nominal, SPACE 227 PEOPLE 3,MIDRISEAPARTMENT APARTMENT OCC 3,THERMAL ZONE 41,84.00,2.4,2.4,2.831E-002,35.324,0.300,0.700,AutoCalculate,MIDRISEAPARTMENT ACTIVITY 3,No,3.8200E-008,1,2
 People Internal Gains Nominal, SPACE 231 PEOPLE 3,MIDRISEAPARTMENT APARTMENT OCC 3,THERMAL ZONE 42,84.00,2.4,2.4,2.831E-002,35.324,0.300,0.700,AutoCalculate,MIDRISEAPARTMENT ACTIVITY 3,No,3.8200E-008,1,2
 People Internal Gains Nominal, SPACE 232 PEOPLE 3,MIDRISEAPARTMENT APARTMENT OCC 3,THERMAL ZONE 43,84.00,2.4,2.4,2.831E-002,35.324,0.300,0.700,AutoCalculate,MIDRISEAPARTMENT ACTIVITY 3,No,3.8200E-008,1,2
 People Internal Gains Nominal, SPACE 233 PEOPLE 3,MIDRISEAPARTMENT APARTMENT OCC 3,THERMAL ZONE 44,84.00,2.4,2.4,2.831E-002,35.324,0.300,0.700,AutoCalculate,MIDRISEAPARTMENT ACTIVITY 3,No,3.8200E-008,1,2
! <ElectricEquipment Internal Gains Nominal>,Name,Schedule Name,Zone Name,Zone Floor Area {m2},# Zone Occupants,Equipment Level {W},Equipment/Floor Area {W/m2},Equipment per person {W/person},Fraction Latent,Fraction Radiant,Fraction Lost,Fraction Convected,End-Use SubCategory,Nominal Minimum Equipment Level {W},Nominal Maximum Equipment Level {W}
 ElectricEquipment Internal Gains Nominal, SPACE 108 ELECTRIC EQUIPMENT 3,MURB APPLIANCES AND LIGHTING,THERMAL ZONE 1,84.00,2.4,684.600,8.150,287.893,0.000,0.500,0.000,0.500,General,0.000,684.600
 ElectricEquipment Internal Gains Nominal, SPACE 101 ELECTRIC EQUIPMENT 3,MURB APPLIANCES AND LIGHTING,THERMAL ZONE 2,84.00,2.4,684.600,8.150,287.893,0.000,0.500,0.000,0.500,General,0.000,684.600
 ElectricEquipment Internal Gains Nominal, SPACE 103 ELECTRIC EQUIPMENT 3,MURB APPLIANCES AND LIGHTING,THERMAL ZONE 4,84.00,2.4,684.600,8.150,287.893,0.000,0.500,0.000,0.500,General,0.000,684.600
 ElectricEquipment Internal Gains Nominal, SPACE 104 ELECTRIC EQUIPMENT 3,MURB APPLIANCES AND LIGHTING,THERMAL ZONE 5,84.00,2.4,684.600,8.150,287.893,0.000,0.500,0.000,0.500,General,0.000,684.600
 ElectricEquipment Internal Gains Nominal, SPACE 230 ELECTRIC EQUIPMENT 3,MURB APPLIANCES AND LIGHTING,THERMAL ZONE 6,84.00,2.4,684.600,8.150,287.893,0.000,0.500,0.000,0.500,General,0.000,684.600
 ElectricEquipment Internal Gains Nominal, SPACE 109 ELECTRIC EQUIPMENT 3,MURB APPLIANCES AND LIGHTING,THERMAL ZONE 8,84.00,2.4,684.600,8.150,287.893,0.000,0.500,0.000,0.500,General,0.000,684.600
 ElectricEquipment Internal Gains Nominal, SPACE 107 ELECTRIC EQUIPMENT 3,MURB APPLIANCES AND LIGHTING,THERMAL ZONE 9,84.00,2.4,684.600,8.150,287.893,0.000,0.500,0.000,0.500,General,0.000,684.600
 ElectricEquipment Internal Gains Nominal, SPACE 105 ELECTRIC EQUIPMENT 3,MURB APPLIANCES AND LIGHTING,THERMAL ZONE 10,84.00,2.4,684.600,8.150,287.893,0.000,0.500,0.000,0.500,General,0.000,684.600
 ElectricEquipment Internal Gains Nominal, SPACE 106 ELECTRIC EQUIPMENT 3,MURB APPLIANCES AND LIGHTING,THERMAL ZONE 11,84.00,2.4,684.600,8.150,287.893,0.000,0.500,0.000,0.500,General,0.000,684.600
 ElectricEquipment Internal Gains Nominal, SPACE 211 ELECTRIC EQUIPMENT 3,MURB APPLIANCES AND LIGHTING,THERMAL ZONE 12,84.00,2.4,684.600,8.150,287.893,0.000,0.500,0.000,0.500,General,0.000,684.600
 ElectricEquipment Internal Gains Nominal, SPACE 206 ELECTRIC EQUIPMENT 3,MURB APPLIANCES AND LIGHTING,THERMAL ZONE 13,84.00,2.4,684.600,8.150,287.893,0.000,0.500,0.000,0.500,General,0.000,684.600
 ElectricEquipment Internal Gains Nominal, SPACE 110 ELECTRIC EQUIPMENT 3,MURB APPLIANCES AND LIGHTING,THERMAL ZONE 14,84.00,2.4,684.600,8.150,287.893,0.000,0.500,0.000,0.500,General,0.000,684.600
 ElectricEquipment Internal Gains Nominal, SPACE 111 ELECTRIC EQUIPMENT 3,MURB APPLIANCES AND LIGHTING,THERMAL ZONE 15,84.00,2.4,684.600,8.150,287.893,0.000,0.500,0.000,0.500,General,0.000,684.600
 ElectricEquipment Internal Gains Nominal, SPACE 201 ELECTRIC EQUIPMENT 3,MURB APPLIANCES AND LIGHTING,THERMAL ZONE 16,84.00,2.4,684.600,8.150,287.893,0.000,0.500,0.000,0.500,General,0.000,684.600
 ElectricEquipment Internal Gains Nominal, SPACE 204 ELECTRIC EQUIPMENT 3,MURB APPLIANCES AND LIGHTING,THERMAL ZONE 18,84.00,2.4,684.600,8.150,287.893,0.000,0.500,0.000,0.500,General,0.000,684.600
 ElectricEquipment Internal Gains Nominal, SPACE 203 ELECTRIC EQUIPMENT 3,MURB APPLIANCES AND LIGHTING,THERMAL ZONE 19,84.00,2.4,684.600,8.150,287.893,0.000,0.500,0.000,0.500,General,0.000,684.600
 ElectricEquipment Internal Gains Nominal, SPACE 205 ELECTRIC EQUIPMENT 3,MURB APPLIANCES AND LIGHTING,THERMAL ZONE 20,84.00,2.4,684.600,8.150,287.893,0.000,0.500,0.000,0.500,General,0.000,684.600
 ElectricEquipment Internal Gains Nominal, SPACE 207 ELECTRIC EQUIPMENT 3,MURB APPLIANCES AND LIGHTING,THERMAL ZONE 21,84.00,2.4,684.600,8.150,287.893,0.000,0.500,0.000,0.500,General,0.000,684.600
 ElectricEquipment Internal Gains Nominal, SPACE 229 ELECTRIC EQUIPMENT 3,MURB APPLIANCES AND LIGHTING,THERMAL ZONE 22,84.00,2.4,684.600,8.150,287.893,0.000,0.500,0.000,0.500,General,0.000,684.600
 ElectricEquipment Internal Gains Nominal, SPACE 226 ELECTRIC EQUIPMENT 3,MURB APPLIANCES AND LIGHTING,THERMAL ZONE 23,84.00,2.4,684.600,8.150,287.893,0.000,0.500,0.000,0.500,General,0.000,684.600
 ElectricEquipment Internal Gains Nominal, SPACE 208 ELECTRIC EQUIPMENT 3,MURB APPLIANCES AND LIGHTING,THERMAL ZONE 24,84.00,2.4,684.600,8.150,287.893,0.000,0.500,0.000,0.500,General,0.000,684.600
 ElectricEquipment Internal Gains Nominal, SPACE 209 ELECTRIC EQUIPMENT 3,MURB APPLIANCES AND LIGHTING,THERMAL ZONE 25,84.00,2.4,684.600,8.150,287.893,0.000,0.500,0.000,0.500,General,0.000,684.600
 ElectricEquipment Internal Gains Nominal, SPACE 219 ELECTRIC EQUIPMENT 3,MURB APPLIANCES AND LIGHTING,THERMAL ZONE 26,84.00,2.4,684.600,8.150,287.893,0.000,0.500,0.000,0.500,General,0.000,684.600
 ElectricEquipment Internal Gains Nominal, SPACE 210 ELECTRIC EQUIPMENT 3,MURB APPLIANCES AND LIGHTING,THERMAL ZONE 27,84.00,2.4,684.600,8.150,287.893,0.000,0.500,0.000,0.500,General,0.000,684.600
 ElectricEquipment Internal Gains Nominal, SPACE 212 ELECTRIC EQUIPMENT 3,MURB APPLIANCES AND LIGHTING,THERMAL ZONE 28,84.00,2.4,684.600,8.150,287.893,0.000,0.500,0.000,0.500,General,0.000,684.600
 ElectricEquipment Internal Gains Nominal, SPACE 213 ELECTRIC EQUIPMENT 3,MURB APPLIANCES AND LIGHTING,THERMAL ZONE 29,84.00,2.4,684.600,8.150,287.893,0.000,0.500,0.000,0.500,General,0.000,684.600
 ElectricEquipment Internal Gains Nominal, SPACE 214 ELECTRIC EQUIPMENT 3,MURB APPLIANCES AND LIGHTING,THERMAL ZONE 30,84.00,2.4,684.600,8.150,287.893,0.000,0.500,0.000,0.500,General,0.000,684.600
 ElectricEquipment Internal Gains Nominal, SPACE 218 ELECTRIC EQUIPMENT 3,MURB APPLIANCES AND LIGHTING,THERMAL ZONE 31,84.00,2.4,684.600,8.150,287.893,0.000,0.500,0.000,0.500,General,0.000,684.600
 ElectricEquipment Internal Gains Nominal, SPACE 215 ELECTRIC EQUIPMENT 3,MURB APPLIANCES AND LIGHTING,THERMAL ZONE 32,84.00,2.4,684.600,8.150,287.893,0.000,0.500,0.000,0.500,General,0.000,684.600
 ElectricEquipment Internal Gains Nominal, SPACE 216 ELECTRIC EQUIPMENT 3,MURB APPLIANCES AND LIGHTING,THERMAL ZONE 33,84.00,2.4,684.600,8.150,287.893,0.000,0.500,0.000,0.500,General,0.000,684.600
 ElectricEquipment Internal Gains Nominal, SPACE 217 ELECTRIC EQUIPMENT 3,MURB APPLIANCES AND LIGHTING,THERMAL ZONE 34,84.00,2.4,684.600,8.150,287.893,0.000,0.500,0.000,0.500,General,0.000,684.600
 ElectricEquipment Internal Gains Nominal, SPACE 220 ELECTRIC EQUIPMENT 3,MURB APPLIANCES AND LIGHTING,THERMAL ZONE 35,84.00,2.4,684.600,8.150,287.893,0.000,0.500,0.000,0.500,General,0.000,684.600
 ElectricEquipment Internal Gains Nominal, SPACE 221 ELECTRIC EQUIPMENT 3,MURB APPLIANCES AND LIGHTING,THERMAL ZONE 36,84.00,2.4,684.600,8.150,287.893,0.000,0.500,0.000,0.500,General,0.000,684.600
 ElectricEquipment Internal Gains Nominal, SPACE 223 ELECTRIC EQUIPMENT 3,MURB APPLIANCES AND LIGHTING,THERMAL ZONE 38,84.00,2.4,684.600,8.150,287.893,0.000,0.500,0.000,0.500,General,0.000,684.600
 ElectricEquipment Internal Gains Nominal, SPACE 224 ELECTRIC EQUIPMENT 3,MURB APPLIANCES AND LIGHTING,THERMAL ZONE 39,84.00,2.4,684.600,8.150,287.893,0.000,0.500,0.000,0.500,General,0.000,684.600
 ElectricEquipment Internal Gains Nominal, SPACE 225 ELECTRIC EQUIPMENT 3,MURB APPLIANCES AND LIGHTING,THERMAL ZONE 40,84.00,2.4,684.600,8.150,287.893,0.000,0.500,0.000,0.500,General,0.000,684.600
 ElectricEquipment Internal Gains Nominal, SPACE 227 ELECTRIC EQUIPMENT 3,MURB APPLIANCES AND LIGHTING,THERMAL ZONE 41,84.00,2.4,684.600,8.150,287.893,0.000,0.500,0.000,0.500,General,0.000,684.600
 ElectricEquipment Internal Gains Nominal, SPACE 231 ELECTRIC EQUIPMENT 3,MURB APPLIANCES AND LIGHTING,THERMAL ZONE 42,84.00,2.4,684.600,8.150,287.893,0.000,0.500,0.000,0.500,General,0.000,684.600
 ElectricEquipment Internal Gains Nominal, SPACE 232 ELECTRIC EQUIPMENT 3,MURB APPLIANCES AND LIGHTING,THERMAL ZONE 43,84.00,2.4,684.600,8.150,287.893,0.000,0.500,0.000,0.500,General,0.000,684.600
 ElectricEquipment Internal Gains Nominal, SPACE 233 ELECTRIC EQUIPMENT 3,MURB APPLIANCES AND LIGHTING,THERMAL ZONE 44,84.00,2.4,684.600,8.150,287.893,0.000,0.500,0.000,0.500,General,0.000,684.600
! <Shadowing/Sun Position Calculations Annual Simulations>, Shading Calculation Method, Shading Calculation Update Frequency Method, Shading Calculation Update Frequency {days}, Maximum Figures in Shadow Overlap Calculations {}, Polygon Clipping Algorithm, Pixel Counting Resolution, Sky Diffuse Modeling Algorithm, Output External Shading Calculation Results, Disable Self-Shading Within Shading Zone Groups, Disable Self-Shading From Shading Zone Groups to Other Zones
Shadowing/Sun Position Calculations Annual Simulations,PolygonClipping,Periodic,7,15000,SutherlandHodgman,512,SimpleSkyDiffuseModeling,No,No,No
! <Water Heater Information>,Type,Name,Volume {m3},Maximum Capacity {W},Standard Rated Recovery Efficiency, Standard Rated Energy Factor
! <ZoneInfiltration Airflow Stats Nominal>,Name,Schedule Name,Zone Name, Zone Floor Area {m2}, # Zone Occupants,Design Volume Flow Rate {m3/s},Volume Flow Rate/Floor Area {m3/s-m2},Volume Flow Rate/Exterior Surface Area {m3/s-m2},ACH - Air Changes per Hour,Equation A - Constant Term Coefficient {},Equation B - Temperature Term Coefficient {1/C},Equation C - Velocity Term Coefficient {s/m}, Equation D - Velocity Squared Term Coefficient {s2/m2}
 ZoneInfiltration Airflow Stats Nominal, SPACE 108 HVAC OFF INFILTRATION,INFILTRATION HVAC OFF SCHEDULE,THERMAL ZONE 1,84.00,2.4,2.440E-002,2.904E-004,1.240E-004,0.343,0.107,1.199E-002,0.000,1.348E-002
 ZoneInfiltration Airflow Stats Nominal, SPACE 108 HVAC ON INFILTRATION,INFILTRATION HVAC ON SCHEDULE,THERMAL ZONE 1,84.00,2.4,2.440E-002,2.904E-004,1.240E-004,0.343,0.107,1.199E-002,0.000,1.348E-002
 ZoneInfiltration Airflow Stats Nominal, SPACE 105 HVAC OFF INFILTRATION,INFILTRATION HVAC OFF SCHEDULE,THERMAL ZONE 10,84.00,2.4,2.440E-002,2.904E-004,1.240E-004,0.343,0.107,1.199E-002,0.000,1.348E-002
 ZoneInfiltration Airflow Stats Nominal, SPACE 105 HVAC ON INFILTRATION,INFILTRATION HVAC ON SCHEDULE,THERMAL ZONE 10,84.00,2.4,2.440E-002,2.904E-004,1.240E-004,0.343,0.107,1.199E-002,0.000,1.348E-002
 ZoneInfiltration Airflow Stats Nominal, SPACE 106 HVAC OFF INFILTRATION,INFILTRATION HVAC OFF SCHEDULE,THERMAL ZONE 11,84.00,2.4,2.440E-002,2.904E-004,1.240E-004,0.343,0.107,1.199E-002,0.000,1.348E-002
 ZoneInfiltration Airflow Stats Nominal, SPACE 106 HVAC ON INFILTRATION,INFILTRATION HVAC ON SCHEDULE,THERMAL ZONE 11,84.00,2.4,2.440E-002,2.904E-004,1.240E-004,0.343,0.107,1.199E-002,0.000,1.348E-002
 ZoneInfiltration Airflow Stats Nominal, SPACE 211 HVAC OFF INFILTRATION,INFILTRATION HVAC OFF SCHEDULE,THERMAL ZONE 12,84.00,2.4,1.398E-002,1.665E-004,1.240E-004,0.197,0.107,1.199E-002,0.000,1.348E-002
 ZoneInfiltration Airflow Stats Nominal, SPACE 211 HVAC ON INFILTRATION,INFILTRATION HVAC ON SCHEDULE,THERMAL ZONE 12,84.00,2.4,1.398E-002,1.665E-004,1.240E-004,0.197,0.107,1.199E-002,0.000,1.348E-002
 ZoneInfiltration Airflow Stats Nominal, SPACE 206 HVAC OFF INFILTRATION,INFILTRATION HVAC OFF SCHEDULE,THERMAL ZONE 13,84.00,2.4,1.398E-002,1.665E-004,1.240E-004,0.197,0.107,1.199E-002,0.000,1.348E-002
 ZoneInfiltration Airflow Stats Nominal, SPACE 206 HVAC ON INFILTRATION,INFILTRATION HVAC ON SCHEDULE,THERMAL ZONE 13,84.00,2.4,1.398E-002,1.665E-004,1.240E-004,0.197,0.107,1.199E-002,0.000,1.348E-002
 ZoneInfiltration Airflow Stats Nominal, SPACE 110 HVAC OFF INFILTRATION,INFILTRATION HVAC OFF SCHEDULE,THERMAL ZONE 14,84.00,2.4,2.440E-002,2.904E-004,1.240E-004,0.343,0.107,1.199E-002,0.000,1.348E-002
 ZoneInfiltration Airflow Stats Nominal, SPACE 110 HVAC ON INFILTRATION,INFILTRATION HVAC ON SCHEDULE,THERMAL ZONE 14,84.00,2.4,2.440E-002,2.904E-004,1.240E-004,0.343,0.107,1.199E-002,0.000,1.348E-002
 ZoneInfiltration Airflow Stats Nominal, SPACE 111 HVAC OFF INFILTRATION,INFILTRATION HVAC OFF SCHEDULE,THERMAL ZONE 15,84.00,2.4,2.440E-002,2.904E-004,1.240E-004,0.343,0.107,1.199E-002,0.000,1.348E-002
 ZoneInfiltration Airflow Stats Nominal, SPACE 111 HVAC ON INFILTRATION,INFILTRATION HVAC ON SCHEDULE,THERMAL ZONE 15,84.00,2.4,2.440E-002,2.904E-004,1.240E-004,0.343,0.107,1.199E-002,0.000,1.348E-002
 ZoneInfiltration Airflow Stats Nominal, SPACE 201 HVAC OFF INFILTRATION,INFILTRATION HVAC OFF SCHEDULE,THERMAL ZONE 16,84.00,2.4,1.398E-002,1.665E-004,1.240E-004,0.197,0.107,1.199E-002,0.000,1.348E-002
 ZoneInfiltration Airflow Stats Nominal, SPACE 201 HVAC ON INFILTRATION,INFILTRATION HVAC ON SCHEDULE,THERMAL ZONE 16,84.00,2.4,1.398E-002,1.665E-004,1.240E-004,0.197,0.107,1.199E-002,0.000,1.348E-002
 ZoneInfiltration Airflow Stats Nominal, SPACE 228 HVAC OFF INFILTRATION,INFILTRATION HVAC OFF SCHEDULE,THERMAL ZONE 17,80.00,0.0,4.166E-002,5.208E-004,1.240E-004,0.615,0.107,1.199E-002,0.000,1.348E-002
 ZoneInfiltration Airflow Stats Nominal, SPACE 228 HVAC ON INFILTRATION,INFILTRATION HVAC ON SCHEDULE,THERMAL ZONE 17,80.00,0.0,4.166E-002,5.208E-004,1.240E-004,0.615,0.107,1.199E-002,0.000,1.348E-002
 ZoneInfiltration Airflow Stats Nominal, SPACE 204 HVAC OFF INFILTRATION,INFILTRATION HVAC OFF SCHEDULE,THERMAL ZONE 18,84.00,2.4,1.398E-002,1.665E-004,1.240E-004,0.197,0.107,1.199E-002,0.000,1.348E-002
 ZoneInfiltration Airflow Stats Nominal, SPACE 204 HVAC ON INFILTRATION,INFILTRATION HVAC ON SCHEDULE,THERMAL ZONE 18,84.00,2.4,1.398E-002,1.665E-004,1.240E-004,0.197,0.107,1.199E-002,0.000,1.348E-002
 ZoneInfiltration Airflow Stats Nominal, SPACE 203 HVAC OFF INFILTRATION,INFILTRATION HVAC OFF SCHEDULE,THERMAL ZONE 19,84.00,2.4,1.398E-002,1.665E-004,1.240E-004,0.197,0.107,1.199E-002,0.000,1.348E-002
 ZoneInfiltration Airflow Stats Nominal, SPACE 203 HVAC ON INFILTRATION,INFILTRATION HVAC ON SCHEDULE,THERMAL ZONE 19,84.00,2.4,1.398E-002,1.665E-004,1.240E-004,0.197,0.107,1.199E-002,0.000,1.348E-002
 ZoneInfiltration Airflow Stats Nominal, SPACE 101 HVAC OFF INFILTRATION,INFILTRATION HVAC OFF SCHEDULE,THERMAL ZONE 2,84.00,2.4,2.440E-002,2.904E-004,1.240E-004,0.343,0.107,1.199E-002,0.000,1.348E-002
 ZoneInfiltration Airflow Stats Nominal, SPACE 101 HVAC ON INFILTRATION,INFILTRATION HVAC ON SCHEDULE,THERMAL ZONE 2,84.00,2.4,2.440E-002,2.904E-004,1.240E-004,0.343,0.107,1.199E-002,0.000,1.348E-002
 ZoneInfiltration Airflow Stats Nominal, SPACE 205 HVAC OFF INFILTRATION,INFILTRATION HVAC OFF SCHEDULE,THERMAL ZONE 20,84.00,2.4,1.398E-002,1.665E-004,1.240E-004,0.197,0.107,1.199E-002,0.000,1.348E-002
 ZoneInfiltration Airflow Stats Nominal, SPACE 205 HVAC ON INFILTRATION,INFILTRATION HVAC ON SCHEDULE,THERMAL ZONE 20,84.00,2.4,1.398E-002,1.665E-004,1.240E-004,0.197,0.107,1.199E-002,0.000,1.348E-002
 ZoneInfiltration Airflow Stats Nominal, SPACE 207 HVAC OFF INFILTRATION,INFILTRATION HVAC OFF SCHEDULE,THERMAL ZONE 21,84.00,2.4,1.398E-002,1.665E-004,1.240E-004,0.197,0.107,1.199E-002,0.000,1.348E-002
 ZoneInfiltration Airflow Stats Nominal, SPACE 207 HVAC ON INFILTRATION,INFILTRATION HVAC ON SCHEDULE,THERMAL ZONE 21,84.00,2.4,1.398E-002,1.665E-004,1.240E-004,0.197,0.107,1.199E-002,0.000,1.348E-002
 ZoneInfiltration Airflow Stats Nominal, SPACE 229 HVAC OFF INFILTRATION,INFILTRATION HVAC OFF SCHEDULE,THERMAL ZONE 22,84.00,2.4,2.440E-002,2.904E-004,1.240E-004,0.343,0.107,1.199E-002,0.000,1.348E-002
 ZoneInfiltration Airflow Stats Nominal, SPACE 229 HVAC ON INFILTRATION,INFILTRATION HVAC ON SCHEDULE,THERMAL ZONE 22,84.00,2.4,2.440E-002,2.904E-004,1.240E-004,0.343,0.107,1.199E-002,0.000,1.348E-002
 ZoneInfiltration Airflow Stats Nominal, SPACE 226 HVAC OFF INFILTRATION,INFILTRATION HVAC OFF SCHEDULE,THERMAL ZONE 23,84.00,2.4,2.440E-002,2.904E-004,1.240E-004,0.343,0.107,1.199E-002,0.000,1.348E-002
 ZoneInfiltration Airflow Stats Nominal, SPACE 226 HVAC ON INFILTRATION,INFILTRATION HVAC ON SCHEDULE,THERMAL ZONE 23,84.00,2.4,2.440E-002,2.904E-004,1.240E-004,0.343,0.107,1.199E-002,0.000,1.348E-002
 ZoneInfiltration Airflow Stats Nominal, SPACE 208 HVAC OFF INFILTRATION,INFILTRATION HVAC OFF SCHEDULE,THERMAL ZONE 24,84.00,2.4,1.398E-002,1.665E-004,1.240E-004,0.197,0.107,1.199E-002,0.000,1.348E-002
 ZoneInfiltration Airflow Stats Nominal, SPACE 208 HVAC ON INFILTRATION,INFILTRATION HVAC ON SCHEDULE,THERMAL ZONE 24,84.00,2.4,1.398E-002,1.665E-004,1.240E-004,0.197,0.107,1.199E-002,0.000,1.348E-002
 ZoneInfiltration Airflow Stats Nominal, SPACE 209 HVAC OFF INFILTRATION,INFILTRATION HVAC OFF SCHEDULE,THERMAL ZONE 25,84.00,2.4,1.398E-002,1.665E-004,1.240E-004,0.197,0.107,1.199E-002,0.000,1.348E-002
 ZoneInfiltration Airflow Stats Nominal, SPACE 209 HVAC ON INFILTRATION,INFILTRATION HVAC ON SCHEDULE,THERMAL ZONE 25,84.00,2.4,1.398E-002,1.665E-004,1.240E-004,0.197,0.107,1.199E-002,0.000,1.348E-002
 ZoneInfiltration Airflow Stats Nominal, SPACE 219 HVAC OFF INFILTRATION,INFILTRATION HVAC OFF SCHEDULE,THERMAL ZONE 26,84.00,2.4,2.440E-002,2.904E-004,1.240E-004,0.343,0.107,1.199E-002,0.000,1.348E-002
 ZoneInfiltration Airflow Stats Nominal, SPACE 219 HVAC ON INFILTRATION,INFILTRATION HVAC ON SCHEDULE,THERMAL ZONE 26,84.00,2.4,2.440E-002,2.904E-004,1.240E-004,0.343,0.107,1.199E-002,0.000,1.348E-002
 ZoneInfiltration Airflow Stats Nominal, SPACE 210 HVAC OFF INFILTRATION,INFILTRATION HVAC OFF SCHEDULE,THERMAL ZONE 27,84.00,2.4,1.398E-002,1.665E-004,1.240E-004,0.197,0.107,1.199E-002,0.000,1.348E-002
 ZoneInfiltration Airflow Stats Nominal, SPACE 210 HVAC ON INFILTRATION,INFILTRATION HVAC ON SCHEDULE,THERMAL ZONE 27,84.00,2.4,1.398E-002,1.665E-004,1.240E-004,0.197,0.107,1.199E-002,0.000,1.348E-002
 ZoneInfiltration Airflow Stats Nominal, SPACE 212 HVAC OFF INFILTRATION,INFILTRATION HVAC OFF SCHEDULE,THERMAL ZONE 28,84.00,2.4,2.440E-002,2.904E-004,1.240E-004,0.343,0.107,1.199E-002,0.000,1.348E-002
 ZoneInfiltration Airflow Stats Nominal, SPACE 212 HVAC ON INFILTRATION,INFILTRATION HVAC ON SCHEDULE,THERMAL ZONE 28,84.00,2.4,2.440E-002,2.904E-004,1.240E-004,0.343,0.107,1.199E-002,0.000,1.348E-002
 ZoneInfiltration Airflow Stats Nominal, SPACE 213 HVAC OFF INFILTRATION,INFILTRATION HVAC OFF SCHEDULE,THERMAL ZONE 29,84.00,2.4,2.440E-002,2.904E-004,1.240E-004,0.343,0.107,1.199E-002,0.000,1.348E-002
 ZoneInfiltration Airflow Stats Nominal, SPACE 213 HVAC ON INFILTRATION,INFILTRATION HVAC ON SCHEDULE,THERMAL ZONE 29,84.00,2.4,2.440E-002,2.904E-004,1.240E-004,0.343,0.107,1.199E-002,0.000,1.348E-002
 ZoneInfiltration Airflow Stats Nominal, SPACE 102 HVAC OFF INFILTRATION,INFILTRATION HVAC OFF SCHEDULE,THERMAL ZONE 3,80.00,0.0,4.166E-002,5.208E-004,1.240E-004,0.615,0.107,1.199E-002,0.000,1.348E-002
 ZoneInfiltration Airflow Stats Nominal, SPACE 102 HVAC ON INFILTRATION,INFILTRATION HVAC ON SCHEDULE,THERMAL ZONE 3,80.00,0.0,4.166E-002,5.208E-004,1.240E-004,0.615,0.107,1.199E-002,0.000,1.348E-002
 ZoneInfiltration Airflow Stats Nominal, SPACE 214 HVAC OFF INFILTRATION,INFILTRATION HVAC OFF SCHEDULE,THERMAL ZONE 30,84.00,2.4,2.440E-002,2.904E-004,1.240E-004,0.343,0.107,1.199E-002,0.000,1.348E-002
 ZoneInfiltration Airflow Stats Nominal, SPACE 214 HVAC ON INFILTRATION,INFILTRATION HVAC ON SCHEDULE,THERMAL ZONE 30,84.00,2.4,2.440E-002,2.904E-004,1.240E-004,0.343,0.107,1.199E-002,0.000,1.348E-002
 ZoneInfiltration Airflow Stats Nominal, SPACE 218 HVAC OFF INFILTRATION,INFILTRATION HVAC OFF SCHEDULE,THERMAL ZONE 31,84.00,2.4,2.440E-002,2.904E-004,1.240E-004,0.343,0.107,1.199E-002,0.000,1.348E-002
 ZoneInfiltration Airflow Stats Nominal, SPACE 218 HVAC ON INFILTRATION,INFILTRATION HVAC ON SCHEDULE,THERMAL ZONE 31,84.00,2.4,2.440E-002,2.904E-004,1.240E-004,0.343,0.107,1.199E-002,0.000,1.348E-002
 ZoneInfiltration Airflow Stats Nominal, SPACE 215 HVAC OFF INFILTRATION,INFILTRATION HVAC OFF SCHEDULE,THERMAL ZONE 32,84.00,2.4,2.440E-002,2.904E-004,1.240E-004,0.343,0.107,1.199E-002,0.000,1.348E-002
 ZoneInfiltration Airflow Stats Nominal, SPACE 215 HVAC ON INFILTRATION,INFILTRATION HVAC ON SCHEDULE,THERMAL ZONE 32,84.00,2.4,2.440E-002,2.904E-004,1.240E-004,0.343,0.107,1.199E-002,0.000,1.348E-002
 ZoneInfiltration Airflow Stats Nominal, SPACE 216 HVAC OFF INFILTRATION,INFILTRATION HVAC OFF SCHEDULE,THERMAL ZONE 33,84.00,2.4,2.440E-002,2.904E-004,1.240E-004,0.343,0.107,1.199E-002,0.000,1.348E-002
 ZoneInfiltration Airflow Stats Nominal, SPACE 216 HVAC ON INFILTRATION,INFILTRATION HVAC ON SCHEDULE,THERMAL ZONE 33,84.00,2.4,2.440E-002,2.904E-004,1.240E-004,0.343,0.107,1.199E-002,0.000,1.348E-002
 ZoneInfiltration Airflow Stats Nominal, SPACE 217 HVAC OFF INFILTRATION,INFILTRATION HVAC OFF SCHEDULE,THERMAL ZONE 34,84.00,2.4,2.440E-002,2.904E-004,1.240E-004,0.343,0.107,1.199E-002,0.000,1.348E-002
 ZoneInfiltration Airflow Stats Nominal, SPACE 217 HVAC ON INFILTRATION,INFILTRATION HVAC ON SCHEDULE,THERMAL ZONE 34,84.00,2.4,2.440E-002,2.904E-004,1.240E-004,0.343,0.107,1.199E-002,0.000,1.348E-002
 ZoneInfiltration Airflow Stats Nominal, SPACE 220 HVAC OFF INFILTRATION,INFILTRATION HVAC OFF SCHEDULE,THERMAL ZONE 35,84.00,2.4,2.440E-002,2.904E-004,1.240E-004,0.343,0.107,1.199E-002,0.000,1.348E-002
 ZoneInfiltration Airflow Stats Nominal, SPACE 220 HVAC ON INFILTRATION,INFILTRATION HVAC ON SCHEDULE,THERMAL ZONE 35,84.00,2.4,2.440E-002,2.904E-004,1.240E-004,0.343,0.107,1.199E-002,0.000,1.348E-002
 ZoneInfiltration Airflow Stats Nominal, SPACE 221 HVAC OFF INFILTRATION,INFILTRATION HVAC OFF SCHEDULE,THERMAL ZONE 36,84.00,2.4,2.440E-002,2.904E-004,1.240E-004,0.343,0.107,1.199E-002,0.000,1.348E-002
 ZoneInfiltration Airflow Stats Nominal, SPACE 221 HVAC ON INFILTRATION,INFILTRATION HVAC ON SCHEDULE,THERMAL ZONE 36,84.00,2.4,2.440E-002,2.904E-004,1.240E-004,0.343,0.107,1.199E-002,0.000,1.348E-002
 ZoneInfiltration Airflow Stats Nominal, SPACE 222 HVAC OFF INFILTRATION,INFILTRATION HVAC OFF SCHEDULE,THERMAL ZONE 37,80.00,0.0,4.166E-002,5.208E-004,1.240E-004,0.615,0.107,1.199E-002,0.000,1.348E-002
 ZoneInfiltration Airflow Stats Nominal, SPACE 222 HVAC ON INFILTRATION,INFILTRATION HVAC ON SCHEDULE,THERMAL ZONE 37,80.00,0.0,4.166E-002,5.208E-004,1.240E-004,0.615,0.107,1.199E-002,0.000,1.348E-002
 ZoneInfiltration Airflow Stats Nominal, SPACE 223 HVAC OFF INFILTRATION,INFILTRATION HVAC OFF SCHEDULE,THERMAL ZONE 38,84.00,2.4,2.440E-002,2.904E-004,1.240E-004,0.343,0.107,1.199E-002,0.000,1.348E-002
 ZoneInfiltration Airflow Stats Nominal, SPACE 223 HVAC ON INFILTRATION,INFILTRATION HVAC ON SCHEDULE,THERMAL ZONE 38,84.00,2.4,2.440E-002,2.904E-004,1.240E-004,0.343,0.107,1.199E-002,0.000,1.348E-002
 ZoneInfiltration Airflow Stats Nominal, SPACE 224 HVAC OFF INFILTRATION,INFILTRATION HVAC OFF SCHEDULE,THERMAL ZONE 39,84.00,2.4,2.440E-002,2.904E-004,1.240E-004,0.343,0.107,1.199E-002,0.000,1.348E-002
 ZoneInfiltration Airflow Stats Nominal, SPACE 224 HVAC ON INFILTRATION,INFILTRATION HVAC ON SCHEDULE,THERMAL ZONE 39,84.00,2.4,2.440E-002,2.904E-004,1.240E-004,0.343,0.107,1.199E-002,0.000,1.348E-002
 ZoneInfiltration Airflow Stats Nominal, SPACE 103 HVAC OFF INFILTRATION,INFILTRATION HVAC OFF SCHEDULE,THERMAL ZONE 4,84.00,2.4,2.440E-002,2.904E-004,1.240E-004,0.343,0.107,1.199E-002,0.000,1.348E-002
 ZoneInfiltration Airflow Stats Nominal, SPACE 103 HVAC ON INFILTRATION,INFILTRATION HVAC ON SCHEDULE,THERMAL ZONE 4,84.00,2.4,2.440E-002,2.904E-004,1.240E-004,0.343,0.107,1.199E-002,0.000,1.348E-002
 ZoneInfiltration Airflow Stats Nominal, SPACE 225 HVAC OFF INFILTRATION,INFILTRATION HVAC OFF SCHEDULE,THERMAL ZONE 40,84.00,2.4,2.440E-002,2.904E-004,1.240E-004,0.343,0.107,1.199E-002,0.000,1.348E-002
 ZoneInfiltration Airflow Stats Nominal, SPACE 225 HVAC ON INFILTRATION,INFILTRATION HVAC ON SCHEDULE,THERMAL ZONE 40,84.00,2.4,2.440E-002,2.904E-004,1.240E-004,0.343,0.107,1.199E-002,0.000,1.348E-002
 ZoneInfiltration Airflow Stats Nominal, SPACE 227 HVAC OFF INFILTRATION,INFILTRATION HVAC OFF SCHEDULE,THERMAL ZONE 41,84.00,2.4,2.440E-002,2.904E-004,1.240E-004,0.343,0.107,1.199E-002,0.000,1.348E-002
 ZoneInfiltration Airflow Stats Nominal, SPACE 227 HVAC ON INFILTRATION,INFILTRATION HVAC ON SCHEDULE,THERMAL ZONE 41,84.00,2.4,2.440E-002,2.904E-004,1.240E-004,0.343,0.107,1.199E-002,0.000,1.348E-002
 ZoneInfiltration Airflow Stats Nominal, SPACE 231 HVAC OFF INFILTRATION,INFILTRATION HVAC OFF SCHEDULE,THERMAL ZONE 42,84.00,2.4,2.440E-002,2.904E-004,1.240E-004,0.343,0.107,1.199E-002,0.000,1.348E-002
 ZoneInfiltration Airflow Stats Nominal, SPACE 231 HVAC ON INFILTRATION,INFILTRATION HVAC ON SCHEDULE,THERMAL ZONE 42,84.00,2.4,2.440E-002,2.904E-004,1.240E-004,0.343,0.107,1.199E-002,0.000,1.348E-002
 ZoneInfiltration Airflow Stats Nominal, SPACE 232 HVAC OFF INFILTRATION,INFILTRATION HVAC OFF SCHEDULE,THERMAL ZONE 43,84.00,2.4,2.440E-002,2.904E-004,1.240E-004,0.343,0.107,1.199E-002,0.000,1.348E-002
 ZoneInfiltration Airflow Stats Nominal, SPACE 232 HVAC ON INFILTRATION,INFILTRATION HVAC ON SCHEDULE,THERMAL ZONE 43,84.00,2.4,2.440E-002,2.904E-004,1.240E-004,0.343,0.107,1.199E-002,0.000,1.348E-002
 ZoneInfiltration Airflow Stats Nominal, SPACE 233 HVAC OFF INFILTRATION,INFILTRATION HVAC OFF SCHEDULE,THERMAL ZONE 44,84.00,2.4,2.440E-002,2.904E-004,1.240E-004,0.343,0.107,1.199E-002,0.000,1.348E-002
 ZoneInfiltration Airflow Stats Nominal, SPACE 233 HVAC ON INFILTRATION,INFILTRATION HVAC ON SCHEDULE,THERMAL ZONE 44,84.00,2.4,2.440E-002,2.904E-004,1.240E-004,0.343,0.107,1.199E-002,0.000,1.348E-002
 ZoneInfiltration Airflow Stats Nominal, SPACE 104 HVAC OFF INFILTRATION,INFILTRATION HVAC OFF SCHEDULE,THERMAL ZONE 5,84.00,2.4,2.440E-002,2.904E-004,1.240E-004,0.343,0.107,1.199E-002,0.000,1.348E-002
 ZoneInfiltration Airflow Stats Nominal, SPACE 104 HVAC ON INFILTRATION,INFILTRATION HVAC ON SCHEDULE,THERMAL ZONE 5,84.00,2.4,2.440E-002,2.904E-004,1.240E-004,0.343,0.107,1.199E-002,0.000,1.348E-002
 ZoneInfiltration Airflow Stats Nominal, SPACE 230 HVAC OFF INFILTRATION,INFILTRATION HVAC OFF SCHEDULE,THERMAL ZONE 6,84.00,2.4,2.440E-002,2.904E-004,1.240E-004,0.343,0.107,1.199E-002,0.000,1.348E-002
 ZoneInfiltration Airflow Stats Nominal, SPACE 230 HVAC ON INFILTRATION,INFILTRATION HVAC ON SCHEDULE,THERMAL ZONE 6,84.00,2.4,2.440E-002,2.904E-004,1.240E-004,0.343,0.107,1.199E-002,0.000,1.348E-002
 ZoneInfiltration Airflow Stats Nominal, SPACE 202 HVAC OFF INFILTRATION,INFILTRATION HVAC OFF SCHEDULE,THERMAL ZONE 7,80.00,0.0,3.174E-002,3.968E-004,1.240E-004,0.469,0.107,1.199E-002,0.000,1.348E-002
 ZoneInfiltration Airflow Stats Nominal, SPACE 202 HVAC ON INFILTRATION,INFILTRATION HVAC ON SCHEDULE,THERMAL ZONE 7,80.00,0.0,3.174E-002,3.968E-004,1.240E-004,0.469,0.107,1.199E-002,0.000,1.348E-002
 ZoneInfiltration Airflow Stats Nominal, SPACE 109 HVAC OFF INFILTRATION,INFILTRATION HVAC OFF SCHEDULE,THERMAL ZONE 8,84.00,2.4,2.440E-002,2.904E-004,1.240E-004,0.343,0.107,1.199E-002,0.000,1.348E-002
 ZoneInfiltration Airflow Stats Nominal, SPACE 109 HVAC ON INFILTRATION,INFILTRATION HVAC ON SCHEDULE,THERMAL ZONE 8,84.00,2.4,2.440E-002,2.904E-004,1.240E-004,0.343,0.107,1.199E-002,0.000,1.348E-002
 ZoneInfiltration Airflow Stats Nominal, SPACE 107 HVAC OFF INFILTRATION,INFILTRATION HVAC OFF SCHEDULE,THERMAL ZONE 9,84.00,2.4,2.440E-002,2.904E-004,1.240E-004,0.343,0.107,1.199E-002,0.000,1.348E-002
 ZoneInfiltration Airflow Stats Nominal, SPACE 107 HVAC ON INFILTRATION,INFILTRATION HVAC ON SCHEDULE,THERMAL ZONE 9,84.00,2.4,2.440E-002,2.904E-004,1.240E-004,0.343,0.107,1.199E-002,0.000,1.348E-002
! <ZoneVentilation Airflow Stats Nominal>,Name,Schedule Name,Zone Name, Zone Floor Area {m2}, # Zone Occupants,Design Volume Flow Rate {m3/s},Volume Flow Rate/Floor Area {m3/s-m2},Volume Flow Rate/person Area {m3/s-person},ACH - Air Changes per Hour,Fan Type {Exhaust;Intake;Natural},Fan Pressure Rise {Pa},Fan Efficiency {},Equation A - Constant Term Coefficient {},Equation B - Temperature Term Coefficient {1/C},Equation C - Velocity Term Coefficient {s/m}, Equation D - Velocity Squared Term Coefficient {s2/m2},Minimum Indoor Temperature{C}/Schedule,Maximum Indoor Temperature{C}/Schedule,Delta Temperature{C}/Schedule,Minimum Outdoor Temperature{C}/Schedule,Maximum Outdoor Temperature{C}/Schedule,Maximum WindSpeed{m/s}
 ZoneVentilation Airflow Stats Nominal, SUB SURFACE 21_WINDANDSTACKOPENAREA,Constant-0.0,THERMAL ZONE 1,84.00,2.4,0.000,0.000,0.000,0.000,Natural,0.000,0.0,0.000,0.000,0.000,0.000,21.67,40.00,3.00,18.33,25.56,5.40
 ZoneVentilation Airflow Stats Nominal, SUB SURFACE 33_WINDANDSTACKOPENAREA,Constant-0.0,THERMAL ZONE 1,84.00,2.4,0.000,0.000,0.000,0.000,Natural,0.000,0.0,0.000,0.000,0.000,0.000,21.67,40.00,3.00,18.33,25.56,5.40
 ZoneVentilation Airflow Stats Nominal, SUB SURFACE 48_WINDANDSTACKOPENAREA,Constant-0.0,THERMAL ZONE 1,84.00,2.4,0.000,0.000,0.000,0.000,Natural,0.000,0.0,0.000,0.000,0.000,0.000,21.67,40.00,3.00,18.33,25.56,5.40
 ZoneVentilation Airflow Stats Nominal, SUB SURFACE 38_WINDANDSTACKOPENAREA,Constant-0.0,THERMAL ZONE 10,84.00,2.4,0.000,0.000,0.000,0.000,Natural,0.000,0.0,0.000,0.000,0.000,0.000,21.67,40.00,3.00,18.33,25.56,5.40
 ZoneVentilation Airflow Stats Nominal, SUB SURFACE 40_WINDANDSTACKOPENAREA,Constant-0.0,THERMAL ZONE 10,84.00,2.4,0.000,0.000,0.000,0.000,Natural,0.000,0.0,0.000,0.000,0.000,0.000,21.67,40.00,3.00,18.33,25.56,5.40
 ZoneVentilation Airflow Stats Nominal, SUB SURFACE 42_WINDANDSTACKOPENAREA,Constant-0.0,THERMAL ZONE 10,84.00,2.4,0.000,0.000,0.000,0.000,Natural,0.000,0.0,0.000,0.000,0.000,0.000,21.67,40.00,3.00,18.33,25.56,5.40
 ZoneVentilation Airflow Stats Nominal, SUB SURFACE 30_WINDANDSTACKOPENAREA,Constant-0.0,THERMAL ZONE 11,84.00,2.4,0.000,0.000,0.000,0.000,Natural,0.000,0.0,0.000,0.000,0.000,0.000,21.67,40.00,3.00,18.33,25.56,5.40
 ZoneVentilation Airflow Stats Nominal, SUB SURFACE 32_WINDANDSTACKOPENAREA,Constant-0.0,THERMAL ZONE 11,84.00,2.4,0.000,0.000,0.000,0.000,Natural,0.000,0.0,0.000,0.000,0.000,0.000,21.67,40.00,3.00,18.33,25.56,5.40
 ZoneVentilation Airflow Stats Nominal, SUB SURFACE 43_WINDANDSTACKOPENAREA,Constant-0.0,THERMAL ZONE 11,84.00,2.4,0.000,0.000,0.000,0.000,Natural,0.000,0.0,0.000,0.000,0.000,0.000,21.67,40.00,3.00,18.33,25.56,5.40
 ZoneVentilation Airflow Stats Nominal, SUB SURFACE 109_WINDANDSTACKOPENAREA,Constant-0.0,THERMAL ZONE 12,84.00,2.4,0.000,0.000,0.000,0.000,Natural,0.000,0.0,0.000,0.000,0.000,0.000,21.67,40.00,3.00,18.33,25.56,5.40
 ZoneVentilation Airflow Stats Nominal, SUB SURFACE 107_WINDANDSTACKOPENAREA,Constant-0.0,THERMAL ZONE 12,84.00,2.4,0.000,0.000,0.000,0.000,Natural,0.000,0.0,0.000,0.000,0.000,0.000,21.67,40.00,3.00,18.33,25.56,5.40
 ZoneVentilation Airflow Stats Nominal, SUB SURFACE 108_WINDANDSTACKOPENAREA,Constant-0.0,THERMAL ZONE 12,84.00,2.4,0.000,0.000,0.000,0.000,Natural,0.000,0.0,0.000,0.000,0.000,0.000,21.67,40.00,3.00,18.33,25.56,5.40
 ZoneVentilation Airflow Stats Nominal, SUB SURFACE 92_WINDANDSTACKOPENAREA,Constant-0.0,THERMAL ZONE 13,84.00,2.4,0.000,0.000,0.000,0.000,Natural,0.000,0.0,0.000,0.000,0.000,0.000,21.67,40.00,3.00,18.33,25.56,5.40
 ZoneVentilation Airflow Stats Nominal, SUB SURFACE 91_WINDANDSTACKOPENAREA,Constant-0.0,THERMAL ZONE 13,84.00,2.4,0.000,0.000,0.000,0.000,Natural,0.000,0.0,0.000,0.000,0.000,0.000,21.67,40.00,3.00,18.33,25.56,5.40
 ZoneVentilation Airflow Stats Nominal, SUB SURFACE 90_WINDANDSTACKOPENAREA,Constant-0.0,THERMAL ZONE 13,84.00,2.4,0.000,0.000,0.000,0.000,Natural,0.000,0.0,0.000,0.000,0.000,0.000,21.67,40.00,3.00,18.33,25.56,5.40
 ZoneVentilation Airflow Stats Nominal, SUB SURFACE 54_WINDANDSTACKOPENAREA,Constant-0.0,THERMAL ZONE 14,84.00,2.4,0.000,0.000,0.000,0.000,Natural,0.000,0.0,0.000,0.000,0.000,0.000,21.67,40.00,3.00,18.33,25.56,5.40
 ZoneVentilation Airflow Stats Nominal, SUB SURFACE 53_WINDANDSTACKOPENAREA,Constant-0.0,THERMAL ZONE 14,84.00,2.4,0.000,0.000,0.000,0.000,Natural,0.000,0.0,0.000,0.000,0.000,0.000,21.67,40.00,3.00,18.33,25.56,5.40
 ZoneVentilation Airflow Stats Nominal, SUB SURFACE 55_WINDANDSTACKOPENAREA,Constant-0.0,THERMAL ZONE 14,84.00,2.4,0.000,0.000,0.000,0.000,Natural,0.000,0.0,0.000,0.000,0.000,0.000,21.67,40.00,3.00,18.33,25.56,5.40
 ZoneVentilation Airflow Stats Nominal, SUB SURFACE 58_WINDANDSTACKOPENAREA,Constant-0.0,THERMAL ZONE 15,84.00,2.4,0.000,0.000,0.000,0.000,Natural,0.000,0.0,0.000,0.000,0.000,0.000,21.67,40.00,3.00,18.33,25.56,5.40
 ZoneVentilation Airflow Stats Nominal, SUB SURFACE 17_WINDANDSTACKOPENAREA,Constant-0.0,THERMAL ZONE 15,84.00,2.4,0.000,0.000,0.000,0.000,Natural,0.000,0.0,0.000,0.000,0.000,0.000,21.67,40.00,3.00,18.33,25.56,5.40
 ZoneVentilation Airflow Stats Nominal, SUB SURFACE 57_WINDANDSTACKOPENAREA,Constant-0.0,THERMAL ZONE 15,84.00,2.4,0.000,0.000,0.000,0.000,Natural,0.000,0.0,0.000,0.000,0.000,0.000,21.67,40.00,3.00,18.33,25.56,5.40
 ZoneVentilation Airflow Stats Nominal, SUB SURFACE 64_WINDANDSTACKOPENAREA,Constant-0.0,THERMAL ZONE 16,84.00,2.4,0.000,0.000,0.000,0.000,Natural,0.000,0.0,0.000,0.000,0.000,0.000,21.67,40.00,3.00,18.33,25.56,5.40
 ZoneVentilation Airflow Stats Nominal, SUB SURFACE 60_WINDANDSTACKOPENAREA,Constant-0.0,THERMAL ZONE 16,84.00,2.4,0.000,0.000,0.000,0.000,Natural,0.000,0.0,0.000,0.000,0.000,0.000,21.67,40.00,3.00,18.33,25.56,5.40
 ZoneVentilation Airflow Stats Nominal, SUB SURFACE 63_WINDANDSTACKOPENAREA,Constant-0.0,THERMAL ZONE 16,84.00,2.4,0.000,0.000,0.000,0.000,Natural,0.000,0.0,0.000,0.000,0.000,0.000,21.67,40.00,3.00,18.33,25.56,5.40
 ZoneVentilation Airflow Stats Nominal, SUB SURFACE 187_WINDANDSTACKOPENAREA,Constant-0.0,THERMAL ZONE 17,80.00,0.0,0.000,0.000,N/A,0.000,Natural,0.000,0.0,0.000,0.000,0.000,0.000,21.67,40.00,3.00,18.33,25.56,5.40
 ZoneVentilation Airflow Stats Nominal, SUB SURFACE 190_WINDANDSTACKOPENAREA,Constant-0.0,THERMAL ZONE 17,80.00,0.0,0.000,0.000,N/A,0.000,Natural,0.000,0.0,0.000,0.000,0.000,0.000,21.67,40.00,3.00,18.33,25.56,5.40
 ZoneVentilation Airflow Stats Nominal, SUB SURFACE 191_WINDANDSTACKOPENAREA,Constant-0.0,THERMAL ZONE 17,80.00,0.0,0.000,0.000,N/A,0.000,Natural,0.000,0.0,0.000,0.000,0.000,0.000,21.67,40.00,3.00,18.33,25.56,5.40
 ZoneVentilation Airflow Stats Nominal, SUB SURFACE 192_WINDANDSTACKOPENAREA,Constant-0.0,THERMAL ZONE 17,80.00,0.0,0.000,0.000,N/A,0.000,Natural,0.000,0.0,0.000,0.000,0.000,0.000,21.67,40.00,3.00,18.33,25.56,5.40
 ZoneVentilation Airflow Stats Nominal, SUB SURFACE 193_WINDANDSTACKOPENAREA,Constant-0.0,THERMAL ZONE 17,80.00,0.0,0.000,0.000,N/A,0.000,Natural,0.000,0.0,0.000,0.000,0.000,0.000,21.67,40.00,3.00,18.33,25.56,5.40
 ZoneVentilation Airflow Stats Nominal, SUB SURFACE 194_WINDANDSTACKOPENAREA,Constant-0.0,THERMAL ZONE 17,80.00,0.0,0.000,0.000,N/A,0.000,Natural,0.000,0.0,0.000,0.000,0.000,0.000,21.67,40.00,3.00,18.33,25.56,5.40
 ZoneVentilation Airflow Stats Nominal, SUB SURFACE 195_WINDANDSTACKOPENAREA,Constant-0.0,THERMAL ZONE 17,80.00,0.0,0.000,0.000,N/A,0.000,Natural,0.000,0.0,0.000,0.000,0.000,0.000,21.67,40.00,3.00,18.33,25.56,5.40
 ZoneVentilation Airflow Stats Nominal, SUB SURFACE 196_WINDANDSTACKOPENAREA,Constant-0.0,THERMAL ZONE 17,80.00,0.0,0.000,0.000,N/A,0.000,Natural,0.000,0.0,0.000,0.000,0.000,0.000,21.67,40.00,3.00,18.33,25.56,5.40
 ZoneVentilation Airflow Stats Nominal, SUB SURFACE 197_WINDANDSTACKOPENAREA,Constant-0.0,THERMAL ZONE 17,80.00,0.0,0.000,0.000,N/A,0.000,Natural,0.000,0.0,0.000,0.000,0.000,0.000,21.67,40.00,3.00,18.33,25.56,5.40
 ZoneVentilation Airflow Stats Nominal, SUB SURFACE 198_WINDANDSTACKOPENAREA,Constant-0.0,THERMAL ZONE 17,80.00,0.0,0.000,0.000,N/A,0.000,Natural,0.000,0.0,0.000,0.000,0.000,0.000,21.67,40.00,3.00,18.33,25.56,5.40
 ZoneVentilation Airflow Stats Nominal, SUB SURFACE 199_WINDANDSTACKOPENAREA,Constant-0.0,THERMAL ZONE 17,80.00,0.0,0.000,0.000,N/A,0.000,Natural,0.000,0.0,0.000,0.000,0.000,0.000,21.67,40.00,3.00,18.33,25.56,5.40
 ZoneVentilation Airflow Stats Nominal, SUB SURFACE 82_WINDANDSTACKOPENAREA,Constant-0.0,THERMAL ZONE 18,84.00,2.4,0.000,0.000,0.000,0.000,Natural,0.000,0.0,0.000,0.000,0.000,0.000,21.67,40.00,3.00,18.33,25.56,5.40
 ZoneVentilation Airflow Stats Nominal, SUB SURFACE 83_WINDANDSTACKOPENAREA,Constant-0.0,THERMAL ZONE 18,84.00,2.4,0.000,0.000,0.000,0.000,Natural,0.000,0.0,0.000,0.000,0.000,0.000,21.67,40.00,3.00,18.33,25.56,5.40
 ZoneVentilation Airflow Stats Nominal, SUB SURFACE 84_WINDANDSTACKOPENAREA,Constant-0.0,THERMAL ZONE 18,84.00,2.4,0.000,0.000,0.000,0.000,Natural,0.000,0.0,0.000,0.000,0.000,0.000,21.67,40.00,3.00,18.33,25.56,5.40
 ZoneVentilation Airflow Stats Nominal, SUB SURFACE 37_WINDANDSTACKOPENAREA,Constant-0.0,THERMAL ZONE 19,84.00,2.4,0.000,0.000,0.000,0.000,Natural,0.000,0.0,0.000,0.000,0.000,0.000,21.67,40.00,3.00,18.33,25.56,5.40
 ZoneVentilation Airflow Stats Nominal, SUB SURFACE 79_WINDANDSTACKOPENAREA,Constant-0.0,THERMAL ZONE 19,84.00,2.4,0.000,0.000,0.000,0.000,Natural,0.000,0.0,0.000,0.000,0.000,0.000,21.67,40.00,3.00,18.33,25.56,5.40
 ZoneVentilation Airflow Stats Nominal, SUB SURFACE 81_WINDANDSTACKOPENAREA,Constant-0.0,THERMAL ZONE 19,84.00,2.4,0.000,0.000,0.000,0.000,Natural,0.000,0.0,0.000,0.000,0.000,0.000,21.67,40.00,3.00,18.33,25.56,5.40
 ZoneVentilation Airflow Stats Nominal, SUB SURFACE 2_WINDANDSTACKOPENAREA,Constant-0.0,THERMAL ZONE 2,84.00,2.4,0.000,0.000,0.000,0.000,Natural,0.000,0.0,0.000,0.000,0.000,0.000,21.67,40.00,3.00,18.33,25.56,5.40
 ZoneVentilation Airflow Stats Nominal, SUB SURFACE 1_WINDANDSTACKOPENAREA,Constant-0.0,THERMAL ZONE 2,84.00,2.4,0.000,0.000,0.000,0.000,Natural,0.000,0.0,0.000,0.000,0.000,0.000,21.67,40.00,3.00,18.33,25.56,5.40
 ZoneVentilation Airflow Stats Nominal, SUB SURFACE 4_WINDANDSTACKOPENAREA,Constant-0.0,THERMAL ZONE 2,84.00,2.4,0.000,0.000,0.000,0.000,Natural,0.000,0.0,0.000,0.000,0.000,0.000,21.67,40.00,3.00,18.33,25.56,5.40
 ZoneVentilation Airflow Stats Nominal, SUB SURFACE 89_WINDANDSTACKOPENAREA,Constant-0.0,THERMAL ZONE 20,84.00,2.4,0.000,0.000,0.000,0.000,Natural,0.000,0.0,0.000,0.000,0.000,0.000,21.67,40.00,3.00,18.33,25.56,5.40
 ZoneVentilation Airflow Stats Nominal, SUB SURFACE 86_WINDANDSTACKOPENAREA,Constant-0.0,THERMAL ZONE 20,84.00,2.4,0.000,0.000,0.000,0.000,Natural,0.000,0.0,0.000,0.000,0.000,0.000,21.67,40.00,3.00,18.33,25.56,5.40
 ZoneVentilation Airflow Stats Nominal, SUB SURFACE 88_WINDANDSTACKOPENAREA,Constant-0.0,THERMAL ZONE 20,84.00,2.4,0.000,0.000,0.000,0.000,Natural,0.000,0.0,0.000,0.000,0.000,0.000,21.67,40.00,3.00,18.33,25.56,5.40
 ZoneVentilation Airflow Stats Nominal, SUB SURFACE 41_WINDANDSTACKOPENAREA,Constant-0.0,THERMAL ZONE 21,84.00,2.4,0.000,0.000,0.000,0.000,Natural,0.000,0.0,0.000,0.000,0.000,0.000,21.67,40.00,3.00,18.33,25.56,5.40
 ZoneVentilation Airflow Stats Nominal, SUB SURFACE 93_WINDANDSTACKOPENAREA,Constant-0.0,THERMAL ZONE 21,84.00,2.4,0.000,0.000,0.000,0.000,Natural,0.000,0.0,0.000,0.000,0.000,0.000,21.67,40.00,3.00,18.33,25.56,5.40
 ZoneVentilation Airflow Stats Nominal, SUB SURFACE 95_WINDANDSTACKOPENAREA,Constant-0.0,THERMAL ZONE 21,84.00,2.4,0.000,0.000,0.000,0.000,Natural,0.000,0.0,0.000,0.000,0.000,0.000,21.67,40.00,3.00,18.33,25.56,5.40
 ZoneVentilation Airflow Stats Nominal, SUB SURFACE 203_WINDANDSTACKOPENAREA,Constant-0.0,THERMAL ZONE 22,84.00,2.4,0.000,0.000,0.000,0.000,Natural,0.000,0.0,0.000,0.000,0.000,0.000,21.67,40.00,3.00,18.33,25.56,5.40
 ZoneVentilation Airflow Stats Nominal, SUB SURFACE 200_WINDANDSTACKOPENAREA,Constant-0.0,THERMAL ZONE 22,84.00,2.4,0.000,0.000,0.000,0.000,Natural,0.000,0.0,0.000,0.000,0.000,0.000,21.67,40.00,3.00,18.33,25.56,5.40
 ZoneVentilation Airflow Stats Nominal, SUB SURFACE 202_WINDANDSTACKOPENAREA,Constant-0.0,THERMAL ZONE 22,84.00,2.4,0.000,0.000,0.000,0.000,Natural,0.000,0.0,0.000,0.000,0.000,0.000,21.67,40.00,3.00,18.33,25.56,5.40
 ZoneVentilation Airflow Stats Nominal, SUB SURFACE 179_WINDANDSTACKOPENAREA,Constant-0.0,THERMAL ZONE 23,84.00,2.4,0.000,0.000,0.000,0.000,Natural,0.000,0.0,0.000,0.000,0.000,0.000,21.67,40.00,3.00,18.33,25.56,5.40
 ZoneVentilation Airflow Stats Nominal, SUB SURFACE 180_WINDANDSTACKOPENAREA,Constant-0.0,THERMAL ZONE 23,84.00,2.4,0.000,0.000,0.000,0.000,Natural,0.000,0.0,0.000,0.000,0.000,0.000,21.67,40.00,3.00,18.33,25.56,5.40
 ZoneVentilation Airflow Stats Nominal, SUB SURFACE 181_WINDANDSTACKOPENAREA,Constant-0.0,THERMAL ZONE 23,84.00,2.4,0.000,0.000,0.000,0.000,Natural,0.000,0.0,0.000,0.000,0.000,0.000,21.67,40.00,3.00,18.33,25.56,5.40
 ZoneVentilation Airflow Stats Nominal, SUB SURFACE 97_WINDANDSTACKOPENAREA,Constant-0.0,THERMAL ZONE 24,84.00,2.4,0.000,0.000,0.000,0.000,Natural,0.000,0.0,0.000,0.000,0.000,0.000,21.67,40.00,3.00,18.33,25.56,5.40
 ZoneVentilation Airflow Stats Nominal, SUB SURFACE 98_WINDANDSTACKOPENAREA,Constant-0.0,THERMAL ZONE 24,84.00,2.4,0.000,0.000,0.000,0.000,Natural,0.000,0.0,0.000,0.000,0.000,0.000,21.67,40.00,3.00,18.33,25.56,5.40
 ZoneVentilation Airflow Stats Nominal, SUB SURFACE 99_WINDANDSTACKOPENAREA,Constant-0.0,THERMAL ZONE 24,84.00,2.4,0.000,0.000,0.000,0.000,Natural,0.000,0.0,0.000,0.000,0.000,0.000,21.67,40.00,3.00,18.33,25.56,5.40
 ZoneVentilation Airflow Stats Nominal, SUB SURFACE 7_WINDANDSTACKOPENAREA,Constant-0.0,THERMAL ZONE 25,84.00,2.4,0.000,0.000,0.000,0.000,Natural,0.000,0.0,0.000,0.000,0.000,0.000,21.67,40.00,3.00,18.33,25.56,5.40
 ZoneVentilation Airflow Stats Nominal, SUB SURFACE 101_WINDANDSTACKOPENAREA,Constant-0.0,THERMAL ZONE 25,84.00,2.4,0.000,0.000,0.000,0.000,Natural,0.000,0.0,0.000,0.000,0.000,0.000,21.67,40.00,3.00,18.33,25.56,5.40
 ZoneVentilation Airflow Stats Nominal, SUB SURFACE 103_WINDANDSTACKOPENAREA,Constant-0.0,THERMAL ZONE 25,84.00,2.4,0.000,0.000,0.000,0.000,Natural,0.000,0.0,0.000,0.000,0.000,0.000,21.67,40.00,3.00,18.33,25.56,5.40
 ZoneVentilation Airflow Stats Nominal, SUB SURFACE 144_WINDANDSTACKOPENAREA,Constant-0.0,THERMAL ZONE 26,84.00,2.4,0.000,0.000,0.000,0.000,Natural,0.000,0.0,0.000,0.000,0.000,0.000,21.67,40.00,3.00,18.33,25.56,5.40
 ZoneVentilation Airflow Stats Nominal, SUB SURFACE 142_WINDANDSTACKOPENAREA,Constant-0.0,THERMAL ZONE 26,84.00,2.4,0.000,0.000,0.000,0.000,Natural,0.000,0.0,0.000,0.000,0.000,0.000,21.67,40.00,3.00,18.33,25.56,5.40
 ZoneVentilation Airflow Stats Nominal, SUB SURFACE 140_WINDANDSTACKOPENAREA,Constant-0.0,THERMAL ZONE 26,84.00,2.4,0.000,0.000,0.000,0.000,Natural,0.000,0.0,0.000,0.000,0.000,0.000,21.67,40.00,3.00,18.33,25.56,5.40
 ZoneVentilation Airflow Stats Nominal, SUB SURFACE 96_WINDANDSTACKOPENAREA,Constant-0.0,THERMAL ZONE 27,84.00,2.4,0.000,0.000,0.000,0.000,Natural,0.000,0.0,0.000,0.000,0.000,0.000,21.67,40.00,3.00,18.33,25.56,5.40
 ZoneVentilation Airflow Stats Nominal, SUB SURFACE 104_WINDANDSTACKOPENAREA,Constant-0.0,THERMAL ZONE 27,84.00,2.4,0.000,0.000,0.000,0.000,Natural,0.000,0.0,0.000,0.000,0.000,0.000,21.67,40.00,3.00,18.33,25.56,5.40
 ZoneVentilation Airflow Stats Nominal, SUB SURFACE 105_WINDANDSTACKOPENAREA,Constant-0.0,THERMAL ZONE 27,84.00,2.4,0.000,0.000,0.000,0.000,Natural,0.000,0.0,0.000,0.000,0.000,0.000,21.67,40.00,3.00,18.33,25.56,5.40
 ZoneVentilation Airflow Stats Nominal, SUB SURFACE 115_WINDANDSTACKOPENAREA,Constant-0.0,THERMAL ZONE 28,84.00,2.4,0.000,0.000,0.000,0.000,Natural,0.000,0.0,0.000,0.000,0.000,0.000,21.67,40.00,3.00,18.33,25.56,5.40
 ZoneVentilation Airflow Stats Nominal, SUB SURFACE 111_WINDANDSTACKOPENAREA,Constant-0.0,THERMAL ZONE 28,84.00,2.4,0.000,0.000,0.000,0.000,Natural,0.000,0.0,0.000,0.000,0.000,0.000,21.67,40.00,3.00,18.33,25.56,5.40
 ZoneVentilation Airflow Stats Nominal, SUB SURFACE 114_WINDANDSTACKOPENAREA,Constant-0.0,THERMAL ZONE 28,84.00,2.4,0.000,0.000,0.000,0.000,Natural,0.000,0.0,0.000,0.000,0.000,0.000,21.67,40.00,3.00,18.33,25.56,5.40
 ZoneVentilation Airflow Stats Nominal, SUB SURFACE 117_WINDANDSTACKOPENAREA,Constant-0.0,THERMAL ZONE 29,84.00,2.4,0.000,0.000,0.000,0.000,Natural,0.000,0.0,0.000,0.000,0.000,0.000,21.67,40.00,3.00,18.33,25.56,5.40
 ZoneVentilation Airflow Stats Nominal, SUB SURFACE 118_WINDANDSTACKOPENAREA,Constant-0.0,THERMAL ZONE 29,84.00,2.4,0.000,0.000,0.000,0.000,Natural,0.000,0.0,0.000,0.000,0.000,0.000,21.67,40.00,3.00,18.33,25.56,5.40
 ZoneVentilation Airflow Stats Nominal, SUB SURFACE 116_WINDANDSTACKOPENAREA,Constant-0.0,THERMAL ZONE 29,84.00,2.4,0.000,0.000,0.000,0.000,Natural,0.000,0.0,0.000,0.000,0.000,0.000,21.67,40.00,3.00,18.33,25.56,5.40
 ZoneVentilation Airflow Stats Nominal, SUB SURFACE 22_WINDANDSTACKOPENAREA,Constant-0.0,THERMAL ZONE 3,80.00,0.0,0.000,0.000,N/A,0.000,Natural,0.000,0.0,0.000,0.000,0.000,0.000,21.67,40.00,3.00,18.33,25.56,5.40
 ZoneVentilation Airflow Stats Nominal, SUB SURFACE 18_WINDANDSTACKOPENAREA,Constant-0.0,THERMAL ZONE 3,80.00,0.0,0.000,0.000,N/A,0.000,Natural,0.000,0.0,0.000,0.000,0.000,0.000,21.67,40.00,3.00,18.33,25.56,5.40
 ZoneVentilation Airflow Stats Nominal, SUB SURFACE 3_WINDANDSTACKOPENAREA,Constant-0.0,THERMAL ZONE 3,80.00,0.0,0.000,0.000,N/A,0.000,Natural,0.000,0.0,0.000,0.000,0.000,0.000,21.67,40.00,3.00,18.33,25.56,5.40
 ZoneVentilation Airflow Stats Nominal, SUB SURFACE 10_WINDANDSTACKOPENAREA,Constant-0.0,THERMAL ZONE 3,80.00,0.0,0.000,0.000,N/A,0.000,Natural,0.000,0.0,0.000,0.000,0.000,0.000,21.67,40.00,3.00,18.33,25.56,5.40
 ZoneVentilation Airflow Stats Nominal, SUB SURFACE 11_WINDANDSTACKOPENAREA,Constant-0.0,THERMAL ZONE 3,80.00,0.0,0.000,0.000,N/A,0.000,Natural,0.000,0.0,0.000,0.000,0.000,0.000,21.67,40.00,3.00,18.33,25.56,5.40
 ZoneVentilation Airflow Stats Nominal, SUB SURFACE 12_WINDANDSTACKOPENAREA,Constant-0.0,THERMAL ZONE 3,80.00,0.0,0.000,0.000,N/A,0.000,Natural,0.000,0.0,0.000,0.000,0.000,0.000,21.67,40.00,3.00,18.33,25.56,5.40
 ZoneVentilation Airflow Stats Nominal, SUB SURFACE 14_WINDANDSTACKOPENAREA,Constant-0.0,THERMAL ZONE 3,80.00,0.0,0.000,0.000,N/A,0.000,Natural,0.000,0.0,0.000,0.000,0.000,0.000,21.67,40.00,3.00,18.33,25.56,5.40
 ZoneVentilation Airflow Stats Nominal, SUB SURFACE 15_WINDANDSTACKOPENAREA,Constant-0.0,THERMAL ZONE 3,80.00,0.0,0.000,0.000,N/A,0.000,Natural,0.000,0.0,0.000,0.000,0.000,0.000,21.67,40.00,3.00,18.33,25.56,5.40
 ZoneVentilation Airflow Stats Nominal, SUB SURFACE 20_WINDANDSTACKOPENAREA,Constant-0.0,THERMAL ZONE 3,80.00,0.0,0.000,0.000,N/A,0.000,Natural,0.000,0.0,0.000,0.000,0.000,0.000,21.67,40.00,3.00,18.33,25.56,5.40
 ZoneVentilation Airflow Stats Nominal, SUB SURFACE 23_WINDANDSTACKOPENAREA,Constant-0.0,THERMAL ZONE 3,80.00,0.0,0.000,0.000,N/A,0.000,Natural,0.000,0.0,0.000,0.000,0.000,0.000,21.67,40.00,3.00,18.33,25.56,5.40
 ZoneVentilation Airflow Stats Nominal, SUB SURFACE 24_WINDANDSTACKOPENAREA,Constant-0.0,THERMAL ZONE 3,80.00,0.0,0.000,0.000,N/A,0.000,Natural,0.000,0.0,0.000,0.000,0.000,0.000,21.67,40.00,3.00,18.33,25.56,5.40
 ZoneVentilation Airflow Stats Nominal, SUB SURFACE 120_WINDANDSTACKOPENAREA,Constant-0.0,THERMAL ZONE 30,84.00,2.4,0.000,0.000,0.000,0.000,Natural,0.000,0.0,0.000,0.000,0.000,0.000,21.67,40.00,3.00,18.33,25.56,5.40
 ZoneVentilation Airflow Stats Nominal, SUB SURFACE 121_WINDANDSTACKOPENAREA,Constant-0.0,THERMAL ZONE 30,84.00,2.4,0.000,0.000,0.000,0.000,Natural,0.000,0.0,0.000,0.000,0.000,0.000,21.67,40.00,3.00,18.33,25.56,5.40
 ZoneVentilation Airflow Stats Nominal, SUB SURFACE 122_WINDANDSTACKOPENAREA,Constant-0.0,THERMAL ZONE 30,84.00,2.4,0.000,0.000,0.000,0.000,Natural,0.000,0.0,0.000,0.000,0.000,0.000,21.67,40.00,3.00,18.33,25.56,5.40
 ZoneVentilation Airflow Stats Nominal, SUB SURFACE 138_WINDANDSTACKOPENAREA,Constant-0.0,THERMAL ZONE 31,84.00,2.4,0.000,0.000,0.000,0.000,Natural,0.000,0.0,0.000,0.000,0.000,0.000,21.67,40.00,3.00,18.33,25.56,5.40
 ZoneVentilation Airflow Stats Nominal, SUB SURFACE 136_WINDANDSTACKOPENAREA,Constant-0.0,THERMAL ZONE 31,84.00,2.4,0.000,0.000,0.000,0.000,Natural,0.000,0.0,0.000,0.000,0.000,0.000,21.67,40.00,3.00,18.33,25.56,5.40
 ZoneVentilation Airflow Stats Nominal, SUB SURFACE 137_WINDANDSTACKOPENAREA,Constant-0.0,THERMAL ZONE 31,84.00,2.4,0.000,0.000,0.000,0.000,Natural,0.000,0.0,0.000,0.000,0.000,0.000,21.67,40.00,3.00,18.33,25.56,5.40
 ZoneVentilation Airflow Stats Nominal, SUB SURFACE 124_WINDANDSTACKOPENAREA,Constant-0.0,THERMAL ZONE 32,84.00,2.4,0.000,0.000,0.000,0.000,Natural,0.000,0.0,0.000,0.000,0.000,0.000,21.67,40.00,3.00,18.33,25.56,5.40
 ZoneVentilation Airflow Stats Nominal, SUB SURFACE 125_WINDANDSTACKOPENAREA,Constant-0.0,THERMAL ZONE 32,84.00,2.4,0.000,0.000,0.000,0.000,Natural,0.000,0.0,0.000,0.000,0.000,0.000,21.67,40.00,3.00,18.33,25.56,5.40
 ZoneVentilation Airflow Stats Nominal, SUB SURFACE 127_WINDANDSTACKOPENAREA,Constant-0.0,THERMAL ZONE 32,84.00,2.4,0.000,0.000,0.000,0.000,Natural,0.000,0.0,0.000,0.000,0.000,0.000,21.67,40.00,3.00,18.33,25.56,5.40
 ZoneVentilation Airflow Stats Nominal, SUB SURFACE 129_WINDANDSTACKOPENAREA,Constant-0.0,THERMAL ZONE 33,84.00,2.4,0.000,0.000,0.000,0.000,Natural,0.000,0.0,0.000,0.000,0.000,0.000,21.67,40.00,3.00,18.33,25.56,5.40
 ZoneVentilation Airflow Stats Nominal, SUB SURFACE 128_WINDANDSTACKOPENAREA,Constant-0.0,THERMAL ZONE 33,84.00,2.4,0.000,0.000,0.000,0.000,Natural,0.000,0.0,0.000,0.000,0.000,0.000,21.67,40.00,3.00,18.33,25.56,5.40
 ZoneVentilation Airflow Stats Nominal, SUB SURFACE 130_WINDANDSTACKOPENAREA,Constant-0.0,THERMAL ZONE 33,84.00,2.4,0.000,0.000,0.000,0.000,Natural,0.000,0.0,0.000,0.000,0.000,0.000,21.67,40.00,3.00,18.33,25.56,5.40
 ZoneVentilation Airflow Stats Nominal, SUB SURFACE 132_WINDANDSTACKOPENAREA,Constant-0.0,THERMAL ZONE 34,84.00,2.4,0.000,0.000,0.000,0.000,Natural,0.000,0.0,0.000,0.000,0.000,0.000,21.67,40.00,3.00,18.33,25.56,5.40
 ZoneVentilation Airflow Stats Nominal, SUB SURFACE 133_WINDANDSTACKOPENAREA,Constant-0.0,THERMAL ZONE 34,84.00,2.4,0.000,0.000,0.000,0.000,Natural,0.000,0.0,0.000,0.000,0.000,0.000,21.67,40.00,3.00,18.33,25.56,5.40
 ZoneVentilation Airflow Stats Nominal, SUB SURFACE 135_WINDANDSTACKOPENAREA,Constant-0.0,THERMAL ZONE 34,84.00,2.4,0.000,0.000,0.000,0.000,Natural,0.000,0.0,0.000,0.000,0.000,0.000,21.67,40.00,3.00,18.33,25.56,5.40
 ZoneVentilation Airflow Stats Nominal, SUB SURFACE 146_WINDANDSTACKOPENAREA,Constant-0.0,THERMAL ZONE 35,84.00,2.4,0.000,0.000,0.000,0.000,Natural,0.000,0.0,0.000,0.000,0.000,0.000,21.67,40.00,3.00,18.33,25.56,5.40
 ZoneVentilation Airflow Stats Nominal, SUB SURFACE 147_WINDANDSTACKOPENAREA,Constant-0.0,THERMAL ZONE 35,84.00,2.4,0.000,0.000,0.000,0.000,Natural,0.000,0.0,0.000,0.000,0.000,0.000,21.67,40.00,3.00,18.33,25.56,5.40
 ZoneVentilation Airflow Stats Nominal, SUB SURFACE 148_WINDANDSTACKOPENAREA,Constant-0.0,THERMAL ZONE 35,84.00,2.4,0.000,0.000,0.000,0.000,Natural,0.000,0.0,0.000,0.000,0.000,0.000,21.67,40.00,3.00,18.33,25.56,5.40
 ZoneVentilation Airflow Stats Nominal, SUB SURFACE 149_WINDANDSTACKOPENAREA,Constant-0.0,THERMAL ZONE 36,84.00,2.4,0.000,0.000,0.000,0.000,Natural,0.000,0.0,0.000,0.000,0.000,0.000,21.67,40.00,3.00,18.33,25.56,5.40
[...]
 Warmup Convergence Information,THERMAL ZONE 33,SizingPeriod: MONTREAL INT'L ANN HTG WIND 99.6% CONDNS WS=>MCDB,4.1487865039E-002,0.2500748005,Pass,Pass,7.1260640685E-003,3.0556782165E-002,Pass,Pass
 Warmup Convergence Information,THERMAL ZONE 34,SizingPeriod: MONTREAL INT'L ANN HTG WIND 99.6% CONDNS WS=>MCDB,4.1515532382E-002,0.2502736607,Pass,Pass,7.2426840633E-003,3.0983579120E-002,Pass,Pass
 Warmup Convergence Information,THERMAL ZONE 35,SizingPeriod: MONTREAL INT'L ANN HTG WIND 99.6% CONDNS WS=>MCDB,4.1515798427E-002,0.2502752684,Pass,Pass,7.2482755329E-003,3.1008025356E-002,Pass,Pass
 Warmup Convergence Information,THERMAL ZONE 36,SizingPeriod: MONTREAL INT'L ANN HTG WIND 99.6% CONDNS WS=>MCDB,4.1514509591E-002,0.2502660282,Pass,Pass,7.2391550444E-003,3.0968868737E-002,Pass,Pass
 Warmup Convergence Information,THERMAL ZONE 37,SizingPeriod: MONTREAL INT'L ANN HTG WIND 99.6% CONDNS WS=>MCDB,4.3656700039E-002,0.2409823018,Pass,Pass,6.2702341096E-003,2.7266439738E-002,Pass,Pass
 Warmup Convergence Information,THERMAL ZONE 38,SizingPeriod: MONTREAL INT'L ANN HTG WIND 99.6% CONDNS WS=>MCDB,4.1496526827E-002,0.2501601389,Pass,Pass,6.8522441609E-003,2.9449706487E-002,Pass,Pass
 Warmup Convergence Information,THERMAL ZONE 39,SizingPeriod: MONTREAL INT'L ANN HTG WIND 99.6% CONDNS WS=>MCDB,4.1468534025E-002,0.2499587482,Pass,Pass,6.7538752349E-003,2.9098564932E-002,Pass,Pass
 Warmup Convergence Information,THERMAL ZONE 4,SizingPeriod: MONTREAL INT'L ANN HTG WIND 99.6% CONDNS WS=>MCDB,4.1614759978E-002,0.2499558476,Pass,Pass,8.2037681229E-003,3.6382296619E-002,Pass,Pass
 Warmup Convergence Information,THERMAL ZONE 40,SizingPeriod: MONTREAL INT'L ANN HTG WIND 99.6% CONDNS WS=>MCDB,4.1495843021E-002,0.2501547534,Pass,Pass,6.8538948034E-003,2.9457481505E-002,Pass,Pass
 Warmup Convergence Information,THERMAL ZONE 41,SizingPeriod: MONTREAL INT'L ANN HTG WIND 99.6% CONDNS WS=>MCDB,4.1495784668E-002,0.2501544136,Pass,Pass,6.8526720027E-003,2.9452094551E-002,Pass,Pass
 Warmup Convergence Information,THERMAL ZONE 42,SizingPeriod: MONTREAL INT'L ANN HTG WIND 99.6% CONDNS WS=>MCDB,4.1469010596E-002,0.2499623068,Pass,Pass,6.7542326055E-003,2.9098267279E-002,Pass,Pass
 Warmup Convergence Information,THERMAL ZONE 43,SizingPeriod: MONTREAL INT'L ANN HTG WIND 99.6% CONDNS WS=>MCDB,4.1496816886E-002,0.2501619835,Pass,Pass,6.8569031555E-003,2.9470041611E-002,Pass,Pass
 Warmup Convergence Information,THERMAL ZONE 44,SizingPeriod: MONTREAL INT'L ANN HTG WIND 99.6% CONDNS WS=>MCDB,4.1468256372E-002,0.2499569786,Pass,Pass,6.7496500283E-003,2.9080298086E-002,Pass,Pass
 Warmup Convergence Information,THERMAL ZONE 5,SizingPeriod: MONTREAL INT'L ANN HTG WIND 99.6% CONDNS WS=>MCDB,4.1630087399E-002,0.2498262481,Pass,Pass,8.3210420479E-003,3.6856225936E-002,Pass,Pass
 Warmup Convergence Information,THERMAL ZONE 6,SizingPeriod: MONTREAL INT'L ANN HTG WIND 99.6% CONDNS WS=>MCDB,4.1495494622E-002,0.2501525694,Pass,Pass,6.8480192851E-003,2.9431788128E-002,Pass,Pass
 Warmup Convergence Information,THERMAL ZONE 7,SizingPeriod: MONTREAL INT'L ANN HTG WIND 99.6% CONDNS WS=>MCDB,4.3135620164E-002,0.2455273110,Pass,Pass,6.9523088585E-003,3.1489222188E-002,Pass,Pass
 Warmup Convergence Information,THERMAL ZONE 8,SizingPeriod: MONTREAL INT'L ANN HTG WIND 99.6% CONDNS WS=>MCDB,4.1630078603E-002,0.2498642142,Pass,Pass,8.3068865007E-003,3.6789499628E-002,Pass,Pass
 Warmup Convergence Information,THERMAL ZONE 9,SizingPeriod: MONTREAL INT'L ANN HTG WIND 99.6% CONDNS WS=>MCDB,4.1632795571E-002,0.2498365597,Pass,Pass,8.3288753625E-003,3.6889115774E-002,Pass,Pass
Environment,MONTREAL INT'L ANN HUM_N 99.6% CONDNS DP=>MCDB,SizingPeriod:DesignDay,01/21,01/21,WinterDesignDay,1,N/A,N/A,N/A,N/A,N/A,N/A,Clark and Allen
Environment:Daylight Saving,No,SizingPeriod:DesignDay
Environment:Design Day Data,-23.00,0.00,DefaultMultipliers,Dewpoint,-30.50,{C},100893,260,3.9,0.00,No,No
Environment:Design Day Misc, 21,1229.0,0.1415,5.7310E-002,1.0,-11.15,-20.1,ASHRAEClearSky
Environment:WarmupDays,  4
 Warmup Convergence Information,THERMAL ZONE 1,SizingPeriod: MONTREAL INT'L ANN HUM_N 99.6% CONDNS DP=>MCDB,4.2624852419E-002,0.2454009481,Pass,Pass,5.8025685752E-003,2.4893319273E-002,Pass,Pass
 Warmup Convergence Information,THERMAL ZONE 10,SizingPeriod: MONTREAL INT'L ANN HUM_N 99.6% CONDNS DP=>MCDB,4.2623911569E-002,0.2454006199,Pass,Pass,5.8002974495E-003,2.4884088442E-002,Pass,Pass
 Warmup Convergence Information,THERMAL ZONE 11,SizingPeriod: MONTREAL INT'L ANN HUM_N 99.6% CONDNS DP=>MCDB,4.2632321456E-002,0.2454020189,Pass,Pass,5.8174538065E-003,2.4955632459E-002,Pass,Pass
 Warmup Convergence Information,THERMAL ZONE 12,SizingPeriod: MONTREAL INT'L ANN HUM_N 99.6% CONDNS DP=>MCDB,4.2944351888E-002,0.2456884328,Pass,Pass,6.3010164695E-003,2.6872301167E-002,Pass,Pass
 Warmup Convergence Information,THERMAL ZONE 13,SizingPeriod: MONTREAL INT'L ANN HUM_N 99.6% CONDNS DP=>MCDB,4.2969796355E-002,0.2456639723,Pass,Pass,6.3577349921E-003,2.7096761164E-002,Pass,Pass
 Warmup Convergence Information,THERMAL ZONE 14,SizingPeriod: MONTREAL INT'L ANN HUM_N 99.6% CONDNS DP=>MCDB,4.2584558090E-002,0.2454477219,Pass,Pass,5.7243725138E-003,2.4604878402E-002,Pass,Pass
 Warmup Convergence Information,THERMAL ZONE 15,SizingPeriod: MONTREAL INT'L ANN HUM_N 99.6% CONDNS DP=>MCDB,4.2584326761E-002,0.2454468797,Pass,Pass,5.7238692951E-003,2.4602722098E-002,Pass,Pass
 Warmup Convergence Information,THERMAL ZONE 16,SizingPeriod: MONTREAL INT'L ANN HUM_N 99.6% CONDNS DP=>MCDB,4.2942526538E-002,0.2456919873,Pass,Pass,6.2964949846E-003,2.6854624242E-002,Pass,Pass
 Warmup Convergence Information,THERMAL ZONE 17,SizingPeriod: MONTREAL INT'L ANN HUM_N 99.6% CONDNS DP=>MCDB,4.4294828127E-002,0.2353756813,Pass,Pass,4.7415450952E-003,2.0102582226E-002,Pass,Pass
 Warmup Convergence Information,THERMAL ZONE 18,SizingPeriod: MONTREAL INT'L ANN HUM_N 99.6% CONDNS DP=>MCDB,4.2966561318E-002,0.2456632760,Pass,Pass,6.3496396811E-003,2.7062379925E-002,Pass,Pass
 Warmup Convergence Information,THERMAL ZONE 19,SizingPeriod: MONTREAL INT'L ANN HUM_N 99.6% CONDNS DP=>MCDB,4.2941971745E-002,0.2456915103,Pass,Pass,6.2951724627E-003,2.6849109489E-002,Pass,Pass
 Warmup Convergence Information,THERMAL ZONE 2,SizingPeriod: MONTREAL INT'L ANN HUM_N 99.6% CONDNS DP=>MCDB,4.2582630170E-002,0.2454493973,Pass,Pass,5.7195346484E-003,2.4586471428E-002,Pass,Pass
 Warmup Convergence Information,THERMAL ZONE 20,SizingPeriod: MONTREAL INT'L ANN HUM_N 99.6% CONDNS DP=>MCDB,4.2966093064E-002,0.2456625916,Pass,Pass,6.3484623467E-003,2.7057364964E-002,Pass,Pass
 Warmup Convergence Information,THERMAL ZONE 21,SizingPeriod: MONTREAL INT'L ANN HUM_N 99.6% CONDNS DP=>MCDB,4.2969328978E-002,0.2456632875,Pass,Pass,6.3565564149E-003,2.7091740710E-002,Pass,Pass
 Warmup Convergence Information,THERMAL ZONE 22,SizingPeriod: MONTREAL INT'L ANN HUM_N 99.6% CONDNS DP=>MCDB,4.2421881730E-002,0.2456993053,Pass,Pass,5.5578329839E-003,2.2841587705E-002,Pass,Pass
 Warmup Convergence Information,THERMAL ZONE 23,SizingPeriod: MONTREAL INT'L ANN HUM_N 99.6% CONDNS DP=>MCDB,4.2400323877E-002,0.2458035455,Pass,Pass,5.4478408196E-003,2.2460586816E-002,Pass,Pass
 Warmup Convergence Information,THERMAL ZONE 24,SizingPeriod: MONTREAL INT'L ANN HUM_N 99.6% CONDNS DP=>MCDB,4.2966675102E-002,0.2456632908,Pass,Pass,6.3500874465E-003,2.7064184174E-002,Pass,Pass
 Warmup Convergence Information,THERMAL ZONE 25,SizingPeriod: MONTREAL INT'L ANN HUM_N 99.6% CONDNS DP=>MCDB,4.2966206850E-002,0.2456626064,Pass,Pass,6.3489101038E-003,2.7059168442E-002,Pass,Pass
 Warmup Convergence Information,THERMAL ZONE 26,SizingPeriod: MONTREAL INT'L ANN HUM_N 99.6% CONDNS DP=>MCDB,4.2413378254E-002,0.2457196850,Pass,Pass,5.5230792070E-003,2.2743952871E-002,Pass,Pass
 Warmup Convergence Information,THERMAL ZONE 27,SizingPeriod: MONTREAL INT'L ANN HUM_N 99.6% CONDNS DP=>MCDB,4.2944724857E-002,0.2456891468,Pass,Pass,6.3019731116E-003,2.6876364100E-002,Pass,Pass
 Warmup Convergence Information,THERMAL ZONE 28,SizingPeriod: MONTREAL INT'L ANN HUM_N 99.6% CONDNS DP=>MCDB,4.2413581678E-002,0.2457208381,Pass,Pass,5.5243813990E-003,2.2748948829E-002,Pass,Pass
 Warmup Convergence Information,THERMAL ZONE 29,SizingPeriod: MONTREAL INT'L ANN HUM_N 99.6% CONDNS DP=>MCDB,4.2434796766E-002,0.2456163684,Pass,Pass,5.6392863779E-003,2.3146819929E-002,Pass,Pass
 Warmup Convergence Information,THERMAL ZONE 3,SizingPeriod: MONTREAL INT'L ANN HUM_N 99.6% CONDNS DP=>MCDB,4.2912556612E-002,0.2458458168,Pass,Pass,4.9801278531E-003,2.1389873457E-002,Pass,Pass
 Warmup Convergence Information,THERMAL ZONE 30,SizingPeriod: MONTREAL INT'L ANN HUM_N 99.6% CONDNS DP=>MCDB,4.2413872293E-002,0.2457181818,Pass,Pass,5.5268391953E-003,2.2757296104E-002,Pass,Pass
 Warmup Convergence Information,THERMAL ZONE 31,SizingPeriod: MONTREAL INT'L ANN HUM_N 99.6% CONDNS DP=>MCDB,4.2434833979E-002,0.2456169140,Pass,Pass,5.6394046594E-003,2.3147337473E-002,Pass,Pass
 Warmup Convergence Information,THERMAL ZONE 32,SizingPeriod: MONTREAL INT'L ANN HUM_N 99.6% CONDNS DP=>MCDB,4.2434599128E-002,0.2456146447,Pass,Pass,5.6379164566E-003,2.3141417446E-002,Pass,Pass
 Warmup Convergence Information,THERMAL ZONE 33,SizingPeriod: MONTREAL INT'L ANN HUM_N 99.6% CONDNS DP=>MCDB,4.2413711003E-002,0.2457168113,Pass,Pass,5.5257704185E-003,2.2753088406E-002,Pass,Pass
 Warmup Convergence Information,THERMAL ZONE 34,SizingPeriod: MONTREAL INT'L ANN HUM_N 99.6% CONDNS DP=>MCDB,4.2435371379E-002,0.2456150375,Pass,Pass,5.6429444893E-003,2.3161264514E-002,Pass,Pass
 Warmup Convergence Information,THERMAL ZONE 35,SizingPeriod: MONTREAL INT'L ANN HUM_N 99.6% CONDNS DP=>MCDB,4.2435567705E-002,0.2456167613,Pass,Pass,5.6443107567E-003,2.3166652474E-002,Pass,Pass
 Warmup Convergence Information,THERMAL ZONE 36,SizingPeriod: MONTREAL INT'L ANN HUM_N 99.6% CONDNS DP=>MCDB,4.2434642567E-002,0.2456146724,Pass,Pass,5.6380361681E-003,2.3141931990E-002,Pass,Pass
 Warmup Convergence Information,THERMAL ZONE 37,SizingPeriod: MONTREAL INT'L ANN HUM_N 99.6% CONDNS DP=>MCDB,4.3526745678E-002,0.2411300640,Pass,Pass,4.8249930095E-003,2.0201914433E-002,Pass,Pass
 Warmup Convergence Information,THERMAL ZONE 38,SizingPeriod: MONTREAL INT'L ANN HUM_N 99.6% CONDNS DP=>MCDB,4.2422593602E-002,0.2456996048,Pass,Pass,5.5623676412E-003,2.2859470034E-002,Pass,Pass
 Warmup Convergence Information,THERMAL ZONE 39,SizingPeriod: MONTREAL INT'L ANN HUM_N 99.6% CONDNS DP=>MCDB,4.2400187072E-002,0.2458079240,Pass,Pass,5.4466429361E-003,2.2457126812E-002,Pass,Pass
 Warmup Convergence Information,THERMAL ZONE 4,SizingPeriod: MONTREAL INT'L ANN HUM_N 99.6% CONDNS DP=>MCDB,4.2582257316E-002,0.2454487639,Pass,Pass,5.7187695480E-003,2.4583360100E-002,Pass,Pass
 Warmup Convergence Information,THERMAL ZONE 40,SizingPeriod: MONTREAL INT'L ANN HUM_N 99.6% CONDNS DP=>MCDB,4.2422102433E-002,0.2457007718,Pass,Pass,5.5592751467E-003,2.2847261362E-002,Pass,Pass
 Warmup Convergence Information,THERMAL ZONE 41,SizingPeriod: MONTREAL INT'L ANN HUM_N 99.6% CONDNS DP=>MCDB,4.2422052743E-002,0.2457007469,Pass,Pass,5.5590790590E-003,2.2846460109E-002,Pass,Pass
 Warmup Convergence Information,THERMAL ZONE 42,SizingPeriod: MONTREAL INT'L ANN HUM_N 99.6% CONDNS DP=>MCDB,4.2400499710E-002,0.2458050695,Pass,Pass,5.4489671517E-003,2.2465014436E-002,Pass,Pass
 Warmup Convergence Information,THERMAL ZONE 43,SizingPeriod: MONTREAL INT'L ANN HUM_N 99.6% CONDNS DP=>MCDB,4.2422814048E-002,0.2457010729,Pass,Pass,5.5638123023E-003,2.2865153740E-002,Pass,Pass
 Warmup Convergence Information,THERMAL ZONE 44,SizingPeriod: MONTREAL INT'L ANN HUM_N 99.6% CONDNS DP=>MCDB,4.2399968105E-002,0.2458066229,Pass,Pass,5.4452892119E-003,2.2451931852E-002,Pass,Pass
 Warmup Convergence Information,THERMAL ZONE 5,SizingPeriod: MONTREAL INT'L ANN HUM_N 99.6% CONDNS DP=>MCDB,4.2624244152E-002,0.2454008276,Pass,Pass,5.8009323902E-003,2.4886787945E-002,Pass,Pass
 Warmup Convergence Information,THERMAL ZONE 6,SizingPeriod: MONTREAL INT'L ANN HUM_N 99.6% CONDNS DP=>MCDB,4.2421832042E-002,0.2456992795,Pass,Pass,5.5576370127E-003,2.2840786913E-002,Pass,Pass
 Warmup Convergence Information,THERMAL ZONE 7,SizingPeriod: MONTREAL INT'L ANN HUM_N 99.6% CONDNS DP=>MCDB,4.2967329335E-002,0.2456844943,Pass,Pass,4.9565278151E-003,2.1859253747E-002,Pass,Pass
 Warmup Convergence Information,THERMAL ZONE 8,SizingPeriod: MONTREAL INT'L ANN HUM_N 99.6% CONDNS DP=>MCDB,4.2624519841E-002,0.2454007403,Pass,Pass,5.8019332573E-003,2.4890618195E-002,Pass,Pass
 Warmup Convergence Information,THERMAL ZONE 9,SizingPeriod: MONTREAL INT'L ANN HUM_N 99.6% CONDNS DP=>MCDB,4.2631986866E-002,0.2454018098,Pass,Pass,5.8168113614E-003,2.4952900925E-002,Pass,Pass
Environment,RUN PERIOD 1,WeatherFileRunPeriod,01/01/2006,12/31/2006,Sunday,365,Use RunPeriod Specified Day,No,No,No,Yes,Yes,Clark and Allen
Environment:Daylight Saving,No,RunPeriod Object
Environment:WarmupDays,  5
 Warmup Convergence Information,THERMAL ZONE 1,RunPeriod: RUN PERIOD 1,4.3569251469E-002,0.3020102479,Pass,Pass,3.2794735870E-002,0.1174741955,Pass,Pass
 Warmup Convergence Information,THERMAL ZONE 10,RunPeriod: RUN PERIOD 1,4.3613479618E-002,0.2933589650,Pass,Pass,8.4753194835E-002,0.2654635574,Pass,Pass
 Warmup Convergence Information,THERMAL ZONE 11,RunPeriod: RUN PERIOD 1,4.3569056415E-002,0.3019396699,Pass,Pass,3.2668281868E-002,0.1178098483,Pass,Pass
 Warmup Convergence Information,THERMAL ZONE 12,RunPeriod: RUN PERIOD 1,4.3734419300E-002,0.2856032206,Pass,Pass,0.1013038937,0.4465270161,Pass,Pass
 Warmup Convergence Information,THERMAL ZONE 13,RunPeriod: RUN PERIOD 1,4.3750554149E-002,0.2859844772,Pass,Pass,8.2196326009E-002,0.3732293805,Pass,Pass
 Warmup Convergence Information,THERMAL ZONE 14,RunPeriod: RUN PERIOD 1,4.3562150672E-002,0.3027843100,Pass,Pass,3.2243873720E-002,0.1145423756,Pass,Pass
 Warmup Convergence Information,THERMAL ZONE 15,RunPeriod: RUN PERIOD 1,4.3592384335E-002,0.3007487519,Pass,Pass,3.9472642176E-002,0.1245141917,Pass,Pass
 Warmup Convergence Information,THERMAL ZONE 16,RunPeriod: RUN PERIOD 1,4.3779974786E-002,0.2844434847,Pass,Pass,0.1187493381,0.5820129506,Pass,Pass
 Warmup Convergence Information,THERMAL ZONE 17,RunPeriod: RUN PERIOD 1,4.3188388535E-002,0.3228515582,Pass,Pass,2.5437631527E-002,5.9447394446E-002,Pass,Pass
 Warmup Convergence Information,THERMAL ZONE 18,RunPeriod: RUN PERIOD 1,4.3753452543E-002,0.2858738881,Pass,Pass,8.4478049653E-002,0.3836041018,Pass,Pass
 Warmup Convergence Information,THERMAL ZONE 19,RunPeriod: RUN PERIOD 1,4.3754941025E-002,0.2838293167,Pass,Pass,0.1373386142,0.7083117318,Pass,Pass
 Warmup Convergence Information,THERMAL ZONE 2,RunPeriod: RUN PERIOD 1,4.3656730778E-002,0.2928851454,Pass,Pass,8.5957373178E-002,0.2765885217,Pass,Pass
 Warmup Convergence Information,THERMAL ZONE 20,RunPeriod: RUN PERIOD 1,4.3750158008E-002,0.2915276308,Pass,Pass,9.5350600667E-002,0.3327444818,Pass,Pass
 Warmup Convergence Information,THERMAL ZONE 21,RunPeriod: RUN PERIOD 1,4.3743772636E-002,0.2854441492,Pass,Pass,0.1032559868,0.4585664239,Pass,Pass
 Warmup Convergence Information,THERMAL ZONE 22,RunPeriod: RUN PERIOD 1,4.5009595533E-002,0.3061668334,Pass,Pass,9.3048895060E-002,0.1683537689,Pass,Pass
 Warmup Convergence Information,THERMAL ZONE 23,RunPeriod: RUN PERIOD 1,4.3622230181E-002,0.3050945369,Pass,Pass,8.0121015005E-002,0.1302279733,Pass,Pass
 Warmup Convergence Information,THERMAL ZONE 24,RunPeriod: RUN PERIOD 1,4.3750251026E-002,0.2859717452,Pass,Pass,8.2813342248E-002,0.3749565715,Pass,Pass
 Warmup Convergence Information,THERMAL ZONE 25,RunPeriod: RUN PERIOD 1,4.3751696444E-002,0.2915076950,Pass,Pass,9.2580292558E-002,0.3260029700,Pass,Pass
 Warmup Convergence Information,THERMAL ZONE 26,RunPeriod: RUN PERIOD 1,4.9023379258E-002,0.3014779107,Pass,Pass,0.1452536695,0.3623873417,Pass,Pass
 Warmup Convergence Information,THERMAL ZONE 27,RunPeriod: RUN PERIOD 1,4.3745262613E-002,0.2861774258,Pass,Pass,8.0957474903E-002,0.3658214677,Pass,Pass
 Warmup Convergence Information,THERMAL ZONE 28,RunPeriod: RUN PERIOD 1,4.4844780836E-002,0.3016866029,Pass,Pass,0.1031242462,0.2235407523,Pass,Pass
 Warmup Convergence Information,THERMAL ZONE 29,RunPeriod: RUN PERIOD 1,4.3681113050E-002,0.3044958577,Pass,Pass,5.3940088762E-002,0.1078513680,Pass,Pass
 Warmup Convergence Information,THERMAL ZONE 3,RunPeriod: RUN PERIOD 1,4.2099807130E-002,0.3271078971,Pass,Pass,2.3265861996E-002,6.7526223662E-002,Pass,Pass
 Warmup Convergence Information,THERMAL ZONE 30,RunPeriod: RUN PERIOD 1,4.3684032731E-002,0.3034106113,Pass,Pass,5.1664463613E-002,0.1029286287,Pass,Pass
 Warmup Convergence Information,THERMAL ZONE 31,RunPeriod: RUN PERIOD 1,4.3672920939E-002,0.3043294781,Pass,Pass,5.4913120367E-002,0.1087448218,Pass,Pass
 Warmup Convergence Information,THERMAL ZONE 32,RunPeriod: RUN PERIOD 1,4.8962867108E-002,0.3039082541,Pass,Pass,0.1841422139,0.6270004818,Pass,Pass
 Warmup Convergence Information,THERMAL ZONE 33,RunPeriod: RUN PERIOD 1,4.7479765101E-002,0.3029324468,Pass,Pass,0.1159069345,0.2612174887,Pass,Pass
 Warmup Convergence Information,THERMAL ZONE 34,RunPeriod: RUN PERIOD 1,4.8226301610E-002,0.3039206005,Pass,Pass,0.1392991567,0.3521393833,Pass,Pass
 Warmup Convergence Information,THERMAL ZONE 35,RunPeriod: RUN PERIOD 1,4.3688252986E-002,0.3045092683,Pass,Pass,5.3043914205E-002,0.1073887945,Pass,Pass
 Warmup Convergence Information,THERMAL ZONE 36,RunPeriod: RUN PERIOD 1,4.9772198065E-002,0.3037576639,Pass,Pass,0.1897992370,0.5887225138,Pass,Pass
 Warmup Convergence Information,THERMAL ZONE 37,RunPeriod: RUN PERIOD 1,4.2799621872E-002,0.3273097683,Pass,Pass,2.5540530635E-002,6.0717141909E-002,Pass,Pass
 Warmup Convergence Information,THERMAL ZONE 38,RunPeriod: RUN PERIOD 1,4.3940303673E-002,0.3064073177,Pass,Pass,8.5562080313E-002,0.1461649548,Pass,Pass
 Warmup Convergence Information,THERMAL ZONE 39,RunPeriod: RUN PERIOD 1,4.3567158032E-002,0.3040936550,Pass,Pass,6.8888341289E-002,0.1115792395,Pass,Pass
 Warmup Convergence Information,THERMAL ZONE 4,RunPeriod: RUN PERIOD 1,4.3605336012E-002,0.2923658821,Pass,Pass,9.6169833199E-002,0.2882984040,Pass,Pass
 Warmup Convergence Information,THERMAL ZONE 40,RunPeriod: RUN PERIOD 1,4.3662843789E-002,0.3066419047,Pass,Pass,4.9867907356E-002,9.8465618743E-002,Pass,Pass
 Warmup Convergence Information,THERMAL ZONE 41,RunPeriod: RUN PERIOD 1,4.3673002131E-002,0.3067764070,Pass,Pass,4.9187638261E-002,9.7996247762E-002,Pass,Pass
 Warmup Convergence Information,THERMAL ZONE 42,RunPeriod: RUN PERIOD 1,4.3659920054E-002,0.3054763077,Pass,Pass,4.7455043580E-002,9.4468421256E-002,Pass,Pass
 Warmup Convergence Information,THERMAL ZONE 43,RunPeriod: RUN PERIOD 1,4.3661583738E-002,0.3068116115,Pass,Pass,4.8550888324E-002,9.7751477333E-002,Pass,Pass
 Warmup Convergence Information,THERMAL ZONE 44,RunPeriod: RUN PERIOD 1,4.4475336874E-002,0.3038845524,Pass,Pass,8.8820126113E-002,0.1530706861,Pass,Pass
 Warmup Convergence Information,THERMAL ZONE 5,RunPeriod: RUN PERIOD 1,4.3678022951E-002,0.2955309855,Pass,Pass,5.7689216611E-002,0.1944821796,Pass,Pass
 Warmup Convergence Information,THERMAL ZONE 6,RunPeriod: RUN PERIOD 1,4.4430681641E-002,0.3063287586,Pass,Pass,8.9397838698E-002,0.1584417076,Pass,Pass
 Warmup Convergence Information,THERMAL ZONE 7,RunPeriod: RUN PERIOD 1,4.1948322302E-002,0.3236813747,Pass,Pass,2.3175342034E-002,7.3549958436E-002,Pass,Pass
 Warmup Convergence Information,THERMAL ZONE 8,RunPeriod: RUN PERIOD 1,4.3600291781E-002,0.3000026540,Pass,Pass,4.0281157763E-002,0.1279860614,Pass,Pass
 Warmup Convergence Information,THERMAL ZONE 9,RunPeriod: RUN PERIOD 1,4.3599460593E-002,0.2999374793,Pass,Pass,4.0079401156E-002,0.1283490475,Pass,Pass
! <Program Control Information:Threads/Parallel Sims>, Threading Supported,Maximum Number of Threads, Env Set Threads (OMP_NUM_THREADS), EP Env Set Threads (EP_OMP_NUM_THREADS), IDF Set Threads, Number of Threads Used (Interior Radiant Exchange), Number Nominal Surfaces, Number Parallel Sims
Program Control:Threads/Parallel Sims, No,1, N/A, N/A, N/A, N/A, N/A, N/A
End of Data
