{
   "completed_at" : "20240717T114829Z",
   "completed_status" : "Success",
   "created_at" : "20240716T104913Z",
   "current_step" : 5,
   "eplusout_err" : "Program Version,EnergyPlus, Version 23.2.0-7636e6b3e9, YMD=2024.07.17 07:44,\n   ************* Beginning Zone Sizing Calculations\n   ** Warning ** ProcessScheduleInput: Schedule:Day:Interval=\"FRACTION LATENT DEFAULTDAY - 0.05\", Blank Schedule Type Limits Name input -- will not be validated.\n   ** Warning ** ProcessScheduleInput: Schedule:Day:Interval=\"FRACTION SENSIBLE DEFAULTDAY - 0.2\", Blank Schedule Type Limits Name input -- will not be validated.\n   ** Warning ** ProcessScheduleInput: Schedule:Day:Interval=\"SCHEDULE DAY 47\", Blank Schedule Type Limits Name input -- will not be validated.\n   ** Warning ** ProcessScheduleInput: Schedule:Day:Interval=\"SCHEDULE DAY 48\", Blank Schedule Type Limits Name input -- will not be validated.\n   ** Warning ** ProcessScheduleInput: Schedule:Year=\"0.05 HOT WATER LATENT FRACTION\", Blank Schedule Type Limits Name input -- will not be validated.\n   ** Warning ** ProcessScheduleInput: Schedule:Year=\"0.2 HOT WATER SENSIBLE FRACTION\", Blank Schedule Type Limits Name input -- will not be validated.\n   ** Warning ** ProcessScheduleInput: Schedule:Year=\"FRACTION SENSIBLE - 0.05\", Blank Schedule Type Limits Name input -- will not be validated.\n   ** Warning ** ProcessScheduleInput: Schedule:Year=\"FRACTION SENSIBLE - 0.2\", Blank Schedule Type Limits Name input -- will not be validated.\n   ** Warning ** ProcessScheduleInput: Schedule:Constant=\"ALWAYS OFF DISCRETE\", Blank Schedule Type Limits Name input -- will not be validated.\n   ** Warning ** ProcessScheduleInput: Schedule:Constant=\"ALWAYS ON CONTINUOUS\", Blank Schedule Type Limits Name input -- will not be validated.\n   ** Warning ** GetHTSurfaceData: Surfaces with interface to Ground found but no \"Ground Temperatures\" were input.\n   **   ~~~   ** Found first in surface=SURFACE 63\n   **   ~~~   ** Defaults, constant throughout the year of (18.0) will be used.\n   ** Warning ** BuildingSurface:Detailed=\"SURFACE 65\", Sun Exposure=\"SUNEXPOSED\".\n   **   ~~~   ** ..This surface is not exposed to External Environment.  Sun exposure has no effect.\n   ** Warning ** BuildingSurface:Detailed=\"SURFACE 70\", Sun Exposure=\"SUNEXPOSED\".\n   **   ~~~   ** ..This surface is not exposed to External Environment.  Sun exposure has no effect.\n   ** Warning ** BuildingSurface:Detailed=\"SURFACE 121\", Sun Exposure=\"SUNEXPOSED\".\n   **   ~~~   ** ..This surface is not exposed to External Environment.  Sun exposure has no effect.\n   ** Warning ** BuildingSurface:Detailed=\"SURFACE 127\", Sun Exposure=\"SUNEXPOSED\".\n   **   ~~~   ** ..This surface is not exposed to External Environment.  Sun exposure has no effect.\n   ** Warning ** BuildingSurface:Detailed=\"SURFACE 194\", Sun Exposure=\"SUNEXPOSED\".\n   **   ~~~   ** ..This surface is not exposed to External Environment.  Sun exposure has no effect.\n   ** Warning ** BuildingSurface:Detailed=\"SURFACE 189\", Sun Exposure=\"SUNEXPOSED\".\n   **   ~~~   ** ..This surface is not exposed to External Environment.  Sun exposure has no effect.\n   ** Warning ** BuildingSurface:Detailed=\"SURFACE 165\", Sun Exposure=\"SUNEXPOSED\".\n   **   ~~~   ** ..This surface is not exposed to External Environment.  Sun exposure has no effect.\n   ** Warning ** CalculateZoneVolume: 1 zone is not fully enclosed. For more details use:  Output:Diagnostics,DisplayExtrawarnings; \n   ** Warning ** CheckUsedConstructions: There are 16 nominally unused constructions in input.\n   **   ~~~   ** For explicit details on each unused construction, use Output:Diagnostics,DisplayExtraWarnings;\n   ** Warning ** GetDXCoils: Coil:Heating:DX:SingleSpeed=\"PTHP 1 SPD DX HTG COIL\" curve values\n   **   ~~~   ** ... Heating Capacity Function of Temperature Curve Name = OS:CURVE:BIQUADRATIC 11 output is not equal to 1.0 (+ or - 10%) at rated conditions.\n   **   ~~~   ** ... Curve output at rated conditions = 0.786\n   ** Warning ** GetDXCoils: Coil:Heating:DX:SingleSpeed=\"PTHP 1 SPD DX HTG COIL 4\" curve values\n   **   ~~~   ** ... Heating Capacity Function of Temperature Curve Name = OS:CURVE:BIQUADRATIC 11 output is not equal to 1.0 (+ or - 10%) at rated conditions.\n   **   ~~~   ** ... Curve output at rated conditions = 0.786\n   ** Warning ** GetDXCoils: Coil:Heating:DX:SingleSpeed=\"PTHP 1 SPD DX HTG COIL 21\" curve values\n   **   ~~~   ** ... Heating Capacity Function of Temperature Curve Name = OS:CURVE:BIQUADRATIC 11 output is not equal to 1.0 (+ or - 10%) at rated conditions.\n   **   ~~~   ** ... Curve output at rated conditions = 0.786\n   ** Warning ** GetDXCoils: Coil:Heating:DX:SingleSpeed=\"PTHP 1 SPD DX HTG COIL 8\" curve values\n   **   ~~~   ** ... Heating Capacity Function of Temperature Curve Name = OS:CURVE:BIQUADRATIC 11 output is not equal to 1.0 (+ or - 10%) at rated conditions.\n   **   ~~~   ** ... Curve output at rated conditions = 0.786\n   ** Warning ** GetDXCoils: Coil:Heating:DX:SingleSpeed=\"PTHP 1 SPD DX HTG COIL 23\" curve values\n   **   ~~~   ** ... Heating Capacity Function of Temperature Curve Name = OS:CURVE:BIQUADRATIC 11 output is not equal to 1.0 (+ or - 10%) at rated conditions.\n   **   ~~~   ** ... Curve output at rated conditions = 0.786\n   ** Warning ** GetDXCoils: Coil:Heating:DX:SingleSpeed=\"PTHP 1 SPD DX HTG COIL 16\" curve values\n   **   ~~~   ** ... Heating Capacity Function of Temperature Curve Name = OS:CURVE:BIQUADRATIC 11 output is not equal to 1.0 (+ or - 10%) at rated conditions.\n   **   ~~~   ** ... Curve output at rated conditions = 0.786\n   ** Warning ** GetDXCoils: Coil:Heating:DX:SingleSpeed=\"PTHP 1 SPD DX HTG COIL 5\" curve values\n   **   ~~~   ** ... Heating Capacity Function of Temperature Curve Name = OS:CURVE:BIQUADRATIC 11 output is not equal to 1.0 (+ or - 10%) at rated conditions.\n   **   ~~~   ** ... Curve output at rated conditions = 0.786\n   ** Warning ** GetDXCoils: Coil:Heating:DX:SingleSpeed=\"PTHP 1 SPD DX HTG COIL 10\" curve values\n   **   ~~~   ** ... Heating Capacity Function of Temperature Curve Name = OS:CURVE:BIQUADRATIC 11 output is not equal to 1.0 (+ or - 10%) at rated conditions.\n   **   ~~~   ** ... Curve output at rated conditions = 0.786\n   ** Warning ** GetDXCoils: Coil:Heating:DX:SingleSpeed=\"PTHP 1 SPD DX HTG COIL 20\" curve values\n   **   ~~~   ** ... Heating Capacity Function of Temperature Curve Name = OS:CURVE:BIQUADRATIC 11 output is not equal to 1.0 (+ or - 10%) at rated conditions.\n   **   ~~~   ** ... Curve output at rated conditions = 0.786\n   ** Warning ** GetDXCoils: Coil:Heating:DX:SingleSpeed=\"PTHP 1 SPD DX HTG COIL 15\" curve values\n   **   ~~~   ** ... Heating Capacity Function of Temperature Curve Name = OS:CURVE:BIQUADRATIC 11 output is not equal to 1.0 (+ or - 10%) at rated conditions.\n   **   ~~~   ** ... Curve output at rated conditions = 0.786\n   ** Warning ** GetDXCoils: Coil:Heating:DX:SingleSpeed=\"PTHP 1 SPD DX HTG COIL 9\" curve values\n   **   ~~~   ** ... Heating Capacity Function of Temperature Curve Name = OS:CURVE:BIQUADRATIC 11 output is not equal to 1.0 (+ or - 10%) at rated conditions.\n   **   ~~~   ** ... Curve output at rated conditions = 0.786\n   ** Warning ** GetDXCoils: Coil:Heating:DX:SingleSpeed=\"PTHP 1 SPD DX HTG COIL 26\" curve values\n   **   ~~~   ** ... Heating Capacity Function of Temperature Curve Name = OS:CURVE:BIQUADRATIC 11 output is not equal to 1.0 (+ or - 10%) at rated conditions.\n   **   ~~~   ** ... Curve output at rated conditions = 0.786\n   ** Warning ** GetDXCoils: Coil:Heating:DX:SingleSpeed=\"PTHP 1 SPD DX HTG COIL 24\" curve values\n   **   ~~~   ** ... Heating Capacity Function of Temperature Curve Name = OS:CURVE:BIQUADRATIC 11 output is not equal to 1.0 (+ or - 10%) at rated conditions.\n   **   ~~~   ** ... Curve output at rated conditions = 0.786\n   ** Warning ** GetDXCoils: Coil:Heating:DX:SingleSpeed=\"PTHP 1 SPD DX HTG COIL 17\" curve values\n   **   ~~~   ** ... Heating Capacity Function of Temperature Curve Name = OS:CURVE:BIQUADRATIC 11 output is not equal to 1.0 (+ or - 10%) at rated conditions.\n   **   ~~~   ** ... Curve output at rated conditions = 0.786\n   ** Warning ** GetDXCoils: Coil:Heating:DX:SingleSpeed=\"PTHP 1 SPD DX HTG COIL 18\" curve values\n   **   ~~~   ** ... Heating Capacity Function of Temperature Curve Name = OS:CURVE:BIQUADRATIC 11 output is not equal to 1.0 (+ or - 10%) at rated conditions.\n   **   ~~~   ** ... Curve output at rated conditions = 0.786\n   ** Warning ** GetDXCoils: Coil:Heating:DX:SingleSpeed=\"PTHP 1 SPD DX HTG COIL 19\" curve values\n   **   ~~~   ** ... Heating Capacity Function of Temperature Curve Name = OS:CURVE:BIQUADRATIC 11 output is not equal to 1.0 (+ or - 10%) at rated conditions.\n   **   ~~~   ** ... Curve output at rated conditions = 0.786\n   ** Warning ** GetDXCoils: Coil:Heating:DX:SingleSpeed=\"PTHP 1 SPD DX HTG COIL 22\" curve values\n   **   ~~~   ** ... Heating Capacity Function of Temperature Curve Name = OS:CURVE:BIQUADRATIC 11 output is not equal to 1.0 (+ or - 10%) at rated conditions.\n   **   ~~~   ** ... Curve output at rated conditions = 0.786\n   ** Warning ** GetDXCoils: Coil:Heating:DX:SingleSpeed=\"PTHP 1 SPD DX HTG COIL 25\" curve values\n   **   ~~~   ** ... Heating Capacity Function of Temperature Curve Name = OS:CURVE:BIQUADRATIC 11 output is not equal to 1.0 (+ or - 10%) at rated conditions.\n   **   ~~~   ** ... Curve output at rated conditions = 0.786\n   ** Warning ** GetDXCoils: Coil:Heating:DX:SingleSpeed=\"PTHP 1 SPD DX HTG COIL 1\" curve values\n   **   ~~~   ** ... Heating Capacity Function of Temperature Curve Name = OS:CURVE:BIQUADRATIC 11 output is not equal to 1.0 (+ or - 10%) at rated conditions.\n   **   ~~~   ** ... Curve output at rated conditions = 0.786\n   ** Warning ** GetDXCoils: Coil:Heating:DX:SingleSpeed=\"PTHP 1 SPD DX HTG COIL 3\" curve values\n   **   ~~~   ** ... Heating Capacity Function of Temperature Curve Name = OS:CURVE:BIQUADRATIC 11 output is not equal to 1.0 (+ or - 10%) at rated conditions.\n   **   ~~~   ** ... Curve output at rated conditions = 0.786\n   ** Warning ** GetDXCoils: Coil:Heating:DX:SingleSpeed=\"PTHP 1 SPD DX HTG COIL 2\" curve values\n   **   ~~~   ** ... Heating Capacity Function of Temperature Curve Name = OS:CURVE:BIQUADRATIC 11 output is not equal to 1.0 (+ or - 10%) at rated conditions.\n   **   ~~~   ** ... Curve output at rated conditions = 0.786\n   ** Warning ** GetDXCoils: Coil:Heating:DX:SingleSpeed=\"PTHP 1 SPD DX HTG COIL 27\" curve values\n   **   ~~~   ** ... Heating Capacity Function of Temperature Curve Name = OS:CURVE:BIQUADRATIC 11 output is not equal to 1.0 (+ or - 10%) at rated conditions.\n   **   ~~~   ** ... Curve output at rated conditions = 0.786\n   ** Warning ** GetDXCoils: Coil:Heating:DX:SingleSpeed=\"PTHP 1 SPD DX HTG COIL 14\" curve values\n   **   ~~~   ** ... Heating Capacity Function of Temperature Curve Name = OS:CURVE:BIQUADRATIC 11 output is not equal to 1.0 (+ or - 10%) at rated conditions.\n   **   ~~~   ** ... Curve output at rated conditions = 0.786\n   ** Warning ** GetDXCoils: Coil:Heating:DX:SingleSpeed=\"PTHP 1 SPD DX HTG COIL 11\" curve values\n   **   ~~~   ** ... Heating Capacity Function of Temperature Curve Name = OS:CURVE:BIQUADRATIC 11 output is not equal to 1.0 (+ or - 10%) at rated conditions.\n   **   ~~~   ** ... Curve output at rated conditions = 0.786\n   ** Warning ** GetDXCoils: Coil:Heating:DX:SingleSpeed=\"PTHP 1 SPD DX HTG COIL 6\" curve values\n   **   ~~~   ** ... Heating Capacity Function of Temperature Curve Name = OS:CURVE:BIQUADRATIC 11 output is not equal to 1.0 (+ or - 10%) at rated conditions.\n   **   ~~~   ** ... Curve output at rated conditions = 0.786\n   ** Warning ** GetDXCoils: Coil:Heating:DX:SingleSpeed=\"PTHP 1 SPD DX HTG COIL 12\" curve values\n   **   ~~~   ** ... Heating Capacity Function of Temperature Curve Name = OS:CURVE:BIQUADRATIC 11 output is not equal to 1.0 (+ or - 10%) at rated conditions.\n   **   ~~~   ** ... Curve output at rated conditions = 0.786\n   ** Warning ** GetDXCoils: Coil:Heating:DX:SingleSpeed=\"PTHP 1 SPD DX HTG COIL 7\" curve values\n   **   ~~~   ** ... Heating Capacity Function of Temperature Curve Name = OS:CURVE:BIQUADRATIC 11 output is not equal to 1.0 (+ or - 10%) at rated conditions.\n   **   ~~~   ** ... Curve output at rated conditions = 0.786\n   ** Warning ** GetDXCoils: Coil:Heating:DX:SingleSpeed=\"PTHP 1 SPD DX HTG COIL 13\" curve values\n   **   ~~~   ** ... Heating Capacity Function of Temperature Curve Name = OS:CURVE:BIQUADRATIC 11 output is not equal to 1.0 (+ or - 10%) at rated conditions.\n   **   ~~~   ** ... Curve output at rated conditions = 0.786\n   ** Warning ** ZoneHVAC:PackagedTerminalHeatPump = PTHP\n   **   ~~~   ** Input for Heating Supply Air Flow Rate Method = SupplyAirFlowRate.\n   **   ~~~   ** Suspicious Heating Supply Air Flow Rate = 2.2204460E-016 when heating coil is present.\n   ** Warning ** ZoneHVAC:PackagedTerminalHeatPump = PTHP 4\n   **   ~~~   ** Input for Heating Supply Air Flow Rate Method = SupplyAirFlowRate.\n   **   ~~~   ** Suspicious Heating Supply Air Flow Rate = 2.2204460E-016 when heating coil is present.\n   ** Warning ** ZoneHVAC:PackagedTerminalHeatPump = PTHP 21\n   **   ~~~   ** Input for Heating Supply Air Flow Rate Method = SupplyAirFlowRate.\n   **   ~~~   ** Suspicious Heating Supply Air Flow Rate = 2.2204460E-016 when heating coil is present.\n   ** Warning ** ZoneHVAC:PackagedTerminalHeatPump = PTHP 8\n   **   ~~~   ** Input for Heating Supply Air Flow Rate Method = SupplyAirFlowRate.\n   **   ~~~   ** Suspicious Heating Supply Air Flow Rate = 2.2204460E-016 when heating coil is present.\n   ** Warning ** ZoneHVAC:PackagedTerminalHeatPump = PTHP 23\n   **   ~~~   ** Input for Heating Supply Air Flow Rate Method = SupplyAirFlowRate.\n   **   ~~~   ** Suspicious Heating Supply Air Flow Rate = 2.2204460E-016 when heating coil is present.\n   ** Warning ** ZoneHVAC:PackagedTerminalHeatPump = PTHP 16\n   **   ~~~   ** Input for Heating Supply Air Flow Rate Method = SupplyAirFlowRate.\n   **   ~~~   ** Suspicious Heating Supply Air Flow Rate = 2.2204460E-016 when heating coil is present.\n   ** Warning ** ZoneHVAC:PackagedTerminalHeatPump = PTHP 5\n   **   ~~~   ** Input for Heating Supply Air Flow Rate Method = SupplyAirFlowRate.\n   **   ~~~   ** Suspicious Heating Supply Air Flow Rate = 2.2204460E-016 when heating coil is present.\n   ** Warning ** ZoneHVAC:PackagedTerminalHeatPump = PTHP 10\n   **   ~~~   ** Input for Heating Supply Air Flow Rate Method = SupplyAirFlowRate.\n   **   ~~~   ** Suspicious Heating Supply Air Flow Rate = 2.2204460E-016 when heating coil is present.\n   ** Warning ** ZoneHVAC:PackagedTerminalHeatPump = PTHP 20\n   **   ~~~   ** Input for Heating Supply Air Flow Rate Method = SupplyAirFlowRate.\n   **   ~~~   ** Suspicious Heating Supply Air Flow Rate = 2.2204460E-016 when heating coil is present.\n   ** Warning ** ZoneHVAC:PackagedTerminalHeatPump = PTHP 15\n   **   ~~~   ** Input for Heating Supply Air Flow Rate Method = SupplyAirFlowRate.\n   **   ~~~   ** Suspicious Heating Supply Air Flow Rate = 2.2204460E-016 when heating coil is present.\n   ** Warning ** ZoneHVAC:PackagedTerminalHeatPump = PTHP 9\n   **   ~~~   ** Input for Heating Supply Air Flow Rate Method = SupplyAirFlowRate.\n   **   ~~~   ** Suspicious Heating Supply Air Flow Rate = 2.2204460E-016 when heating coil is present.\n   ** Warning ** ZoneHVAC:PackagedTerminalHeatPump = PTHP 26\n   **   ~~~   ** Input for Heating Supply Air Flow Rate Method = SupplyAirFlowRate.\n   **   ~~~   ** Suspicious Heating Supply Air Flow Rate = 2.2204460E-016 when heating coil is present.\n   ** Warning ** ZoneHVAC:PackagedTerminalHeatPump = PTHP 24\n   **   ~~~   ** Input for Heating Supply Air Flow Rate Method = SupplyAirFlowRate.\n   **   ~~~   ** Suspicious Heating Supply Air Flow Rate = 2.2204460E-016 when heating coil is present.\n   ** Warning ** ZoneHVAC:PackagedTerminalHeatPump = PTHP 17\n   **   ~~~   ** Input for Heating Supply Air Flow Rate Method = SupplyAirFlowRate.\n   **   ~~~   ** Suspicious Heating Supply Air Flow Rate = 2.2204460E-016 when heating coil is present.\n   ** Warning ** ZoneHVAC:PackagedTerminalHeatPump = PTHP 18\n   **   ~~~   ** Input for Heating Supply Air Flow Rate Method = SupplyAirFlowRate.\n   **   ~~~   ** Suspicious Heating Supply Air Flow Rate = 2.2204460E-016 when heating coil is present.\n   ** Warning ** ZoneHVAC:PackagedTerminalHeatPump = PTHP 19\n   **   ~~~   ** Input for Heating Supply Air Flow Rate Method = SupplyAirFlowRate.\n   **   ~~~   ** Suspicious Heating Supply Air Flow Rate = 2.2204460E-016 when heating coil is present.\n   ** Warning ** ZoneHVAC:PackagedTerminalHeatPump = PTHP 22\n   **   ~~~   ** Input for Heating Supply Air Flow Rate Method = SupplyAirFlowRate.\n   **   ~~~   ** Suspicious Heating Supply Air Flow Rate = 2.2204460E-016 when heating coil is present.\n   ** Warning ** ZoneHVAC:PackagedTerminalHeatPump = PTHP 25\n   **   ~~~   ** Input for Heating Supply Air Flow Rate Method = SupplyAirFlowRate.\n   **   ~~~   ** Suspicious Heating Supply Air Flow Rate = 2.2204460E-016 when heating coil is present.\n   ** Warning ** ZoneHVAC:PackagedTerminalHeatPump = PTHP 1\n   **   ~~~   ** Input for Heating Supply Air Flow Rate Method = SupplyAirFlowRate.\n   **   ~~~   ** Suspicious Heating Supply Air Flow Rate = 2.2204460E-016 when heating coil is present.\n   ** Warning ** ZoneHVAC:PackagedTerminalHeatPump = PTHP 3\n   **   ~~~   ** Input for Heating Supply Air Flow Rate Method = SupplyAirFlowRate.\n   **   ~~~   ** Suspicious Heating Supply Air Flow Rate = 2.2204460E-016 when heating coil is present.\n   ** Warning ** ZoneHVAC:PackagedTerminalHeatPump = PTHP 2\n   **   ~~~   ** Input for Heating Supply Air Flow Rate Method = SupplyAirFlowRate.\n   **   ~~~   ** Suspicious Heating Supply Air Flow Rate = 2.2204460E-016 when heating coil is present.\n   ** Warning ** ZoneHVAC:PackagedTerminalHeatPump = PTHP 27\n   **   ~~~   ** Input for Heating Supply Air Flow Rate Method = SupplyAirFlowRate.\n   **   ~~~   ** Suspicious Heating Supply Air Flow Rate = 2.2204460E-016 when heating coil is present.\n   ** Warning ** ZoneHVAC:PackagedTerminalHeatPump = PTHP 14\n   **   ~~~   ** Input for Heating Supply Air Flow Rate Method = SupplyAirFlowRate.\n   **   ~~~   ** Suspicious Heating Supply Air Flow Rate = 2.2204460E-016 when heating coil is present.\n   ** Warning ** ZoneHVAC:PackagedTerminalHeatPump = PTHP 11\n   **   ~~~   ** Input for Heating Supply Air Flow Rate Method = SupplyAirFlowRate.\n   **   ~~~   ** Suspicious Heating Supply Air Flow Rate = 2.2204460E-016 when heating coil is present.\n   ** Warning ** ZoneHVAC:PackagedTerminalHeatPump = PTHP 6\n   **   ~~~   ** Input for Heating Supply Air Flow Rate Method = SupplyAirFlowRate.\n   **   ~~~   ** Suspicious Heating Supply Air Flow Rate = 2.2204460E-016 when heating coil is present.\n   ** Warning ** ZoneHVAC:PackagedTerminalHeatPump = PTHP 12\n   **   ~~~   ** Input for Heating Supply Air Flow Rate Method = SupplyAirFlowRate.\n   **   ~~~   ** Suspicious Heating Supply Air Flow Rate = 2.2204460E-016 when heating coil is present.\n   ** Warning ** ZoneHVAC:PackagedTerminalHeatPump = PTHP 7\n   **   ~~~   ** Input for Heating Supply Air Flow Rate Method = SupplyAirFlowRate.\n   **   ~~~   ** Suspicious Heating Supply Air Flow Rate = 2.2204460E-016 when heating coil is present.\n   ** Warning ** ZoneHVAC:PackagedTerminalHeatPump = PTHP 13\n   **   ~~~   ** Input for Heating Supply Air Flow Rate Method = SupplyAirFlowRate.\n   **   ~~~   ** Suspicious Heating Supply Air Flow Rate = 2.2204460E-016 when heating coil is present.\n   ************* Beginning Plant Sizing Calculations\n   ** Warning ** The Standard Ratings is calculated for Coil:Heating:DX:SingleSpeed = PTHP 1 SPD DX HTG COIL but not at the AHRI test condition due to curve out of bound.\n   **   ~~~   **  Review the Standard Ratings calculations in the Engineering Reference for this coil type. Also, use Output:Diagnostics, DisplayExtraWarnings for further guidance.\n   ** Warning ** Sizing: Coil:Heating:DX:SingleSpeed PTHP 1 SPD DX HTG COIL: Rated air volume flow rate per watt of rated total heating capacity is out of range.\n   **   ~~~   ** Min Rated Vol Flow Per Watt=[4.027E-005], Rated Vol Flow Per Watt=[919450908049509.000], Max Rated Vol Flow Per Watt=[6.041E-005]. See Input-Output Reference Manual for valid range.\n   ** Warning ** Coil:Heating:DX:SingleSpeed \"PTHP 1 SPD DX HTG COIL\" - Air volume flow rate per watt of rated total heating capacity is out of range at 915452029008214. m3/s/W.\n   **   ~~~   **  During Warmup, Environment=MONTREAL INT'L ANN CLG .4% CONDNS DB=>MWB, at Simulation time=07/21 00:00 - 00:10\n   **   ~~~   ** Expected range for VolumeFlowPerRatedTotalCapacity=[2.684E-005--8.056E-005]\n   **   ~~~   ** Possible causes include inconsistent air flow rates in system components or\n   **   ~~~   ** inconsistent supply air fan operation modes in coil and unitary system objects.\n   ** Warning ** The Standard Ratings is calculated for Coil:Heating:DX:SingleSpeed = PTHP 1 SPD DX HTG COIL 4 but not at the AHRI test condition due to curve out of bound.\n   **   ~~~   **  Review the Standard Ratings calculations in the Engineering Reference for this coil type. Also, use Output:Diagnostics, DisplayExtraWarnings for further guidance.\n   ** Warning ** Sizing: Coil:Heating:DX:SingleSpeed PTHP 1 SPD DX HTG COIL 4: Rated air volume flow rate per watt of rated total heating capacity is out of range.\n   **   ~~~   ** Min Rated Vol Flow Per Watt=[4.027E-005], Rated Vol Flow Per Watt=[1161304086409927.000], Max Rated Vol Flow Per Watt=[6.041E-005]. See Input-Output Reference Manual for valid range.\n   ** Warning ** Coil:Heating:DX:SingleSpeed \"PTHP 1 SPD DX HTG COIL 4\" - Air volume flow rate per watt of rated total heating capacity is out of range at 1156253338696201. m3/s/W.\n   **   ~~~   **  During Warmup, Environment=MONTREAL INT'L ANN CLG .4% CONDNS DB=>MWB, at Simulation time=07/21 00:00 - 00:10\n   **   ~~~   ** Expected range for VolumeFlowPerRatedTotalCapacity=[2.684E-005--8.056E-005]\n   **   ~~~   ** Possible causes include inconsistent air flow rates in system components or\n   **   ~~~   ** inconsistent supply air fan operation modes in coil and unitary system objects.\n   ** Warning ** The Standard Ratings is calculated for Coil:Heating:DX:SingleSpeed = PTHP 1 SPD DX HTG COIL 21 but not at the AHRI test condition due to curve out of bound.\n   **   ~~~   **  Review the Standard Ratings calculations in the Engineering Reference for this coil type. Also, use Output:Diagnostics, DisplayExtraWarnings for further guidance.\n   ** Warning ** Sizing: Coil:Heating:DX:SingleSpeed PTHP 1 SPD DX HTG COIL 21: Rated air volume flow rate per watt of rated total heating capacity is out of range.\n   **   ~~~   ** Min Rated Vol Flow Per Watt=[4.027E-005], Rated Vol Flow Per Watt=[1204346168510934.500], Max Rated Vol Flow Per Watt=[6.041E-005]. See Input-Output Reference Manual for valid range.\n   ** Warning ** Coil:Heating:DX:SingleSpeed \"PTHP 1 SPD DX HTG COIL 21\" - Air volume flow rate per watt of rated total heating capacity is out of range at 1199108222026180. m3/s/W.\n   **   ~~~   **  During Warmup, Environment=MONTREAL INT'L ANN CLG .4% CONDNS DB=>MWB, at Simulation time=07/21 00:00 - 00:10\n   **   ~~~   ** Expected range for VolumeFlowPerRatedTotalCapacity=[2.684E-005--8.056E-005]\n   **   ~~~   ** Possible causes include inconsistent air flow rates in system components or\n   **   ~~~   ** inconsistent supply air fan operation modes in coil and unitary system objects.\n   ** Warning ** The Standard Ratings is calculated for Coil:Heating:DX:SingleSpeed = PTHP 1 SPD DX HTG COIL 8 but not at the AHRI test condition due to curve out of bound.\n   **   ~~~   **  Review the Standard Ratings calculations in the Engineering Reference for this coil type. Also, use Output:Diagnostics, DisplayExtraWarnings for further guidance.\n   ** Warning ** Sizing: Coil:Heating:DX:SingleSpeed PTHP 1 SPD DX HTG COIL 8: Rated air volume flow rate per watt of rated total heating capacity is out of range.\n   **   ~~~   ** Min Rated Vol Flow Per Watt=[4.027E-005], Rated Vol Flow Per Watt=[27746054537520804.000], Max Rated Vol Flow Per Watt=[6.041E-005]. See Input-Output Reference Manual for valid range.\n   ** Warning ** Coil:Heating:DX:SingleSpeed \"PTHP 1 SPD DX HTG COIL 8\" - Air volume flow rate per watt of rated total heating capacity is out of range at 27625381302008884. m3/s/W.\n   **   ~~~   **  During Warmup, Environment=MONTREAL INT'L ANN CLG .4% CONDNS DB=>MWB, at Simulation time=07/21 00:00 - 00:10\n   **   ~~~   ** Expected range for VolumeFlowPerRatedTotalCapacity=[2.684E-005--8.056E-005]\n   **   ~~~   ** Possible causes include inconsistent air flow rates in system components or\n   **   ~~~   ** inconsistent supply air fan operation modes in coil and unitary system objects.\n   ** Warning ** The Standard Ratings is calculated for Coil:Heating:DX:SingleSpeed = PTHP 1 SPD DX HTG COIL 23 but not at the AHRI test condition due to curve out of bound.\n   **   ~~~   **  Review the Standard Ratings calculations in the Engineering Reference for this coil type. Also, use Output:Diagnostics, DisplayExtraWarnings for further guidance.\n   ** Warning ** Sizing: Coil:Heating:DX:SingleSpeed PTHP 1 SPD DX HTG COIL 23: Rated air volume flow rate per watt of rated total heating capacity is out of range.\n   **   ~~~   ** Min Rated Vol Flow Per Watt=[4.027E-005], Rated Vol Flow Per Watt=[1414543912419951.250], Max Rated Vol Flow Per Watt=[6.041E-005]. See Input-Output Reference Manual for valid range.\n   ** Warning ** Coil:Heating:DX:SingleSpeed \"PTHP 1 SPD DX HTG COIL 23\" - Air volume flow rate per watt of rated total heating capacity is out of range at 1408391773186801. m3/s/W.\n   **   ~~~   **  During Warmup, Environment=MONTREAL INT'L ANN CLG .4% CONDNS DB=>MWB, at Simulation time=07/21 00:00 - 00:10\n   **   ~~~   ** Expected range for VolumeFlowPerRatedTotalCapacity=[2.684E-005--8.056E-005]\n   **   ~~~   ** Possible causes include inconsistent air flow rates in system components or\n   **   ~~~   ** inconsistent supply air fan operation modes in coil and unitary system objects.\n   ** Warning ** The Standard Ratings is calculated for Coil:Heating:DX:SingleSpeed = PTHP 1 SPD DX HTG COIL 16 but not at the AHRI test condition due to curve out of bound.\n   **   ~~~   **  Review the Standard Ratings calculations in the Engineering Reference for this coil type. Also, use Output:Diagnostics, DisplayExtraWarnings for further guidance.\n   ** Warning ** Sizing: Coil:Heating:DX:SingleSpeed PTHP 1 SPD DX HTG COIL 16: Rated air volume flow rate per watt of rated total heating capacity is out of range.\n   **   ~~~   ** Min Rated Vol Flow Per Watt=[4.027E-005], Rated Vol Flow Per Watt=[12849188490976626.000], Max Rated Vol Flow Per Watt=[6.041E-005]. See Input-Output Reference Manual for valid range.\n   ** Warning ** Coil:Heating:DX:SingleSpeed \"PTHP 1 SPD DX HTG COIL 16\" - Air volume flow rate per watt of rated total heating capacity is out of range at 12793304756342866. m3/s/W.\n   **   ~~~   **  During Warmup, Environment=MONTREAL INT'L ANN CLG .4% CONDNS DB=>MWB, at Simulation time=07/21 00:00 - 00:10\n   **   ~~~   ** Expected range for VolumeFlowPerRatedTotalCapacity=[2.684E-005--8.056E-005]\n   **   ~~~   ** Possible causes include inconsistent air flow rates in system components or\n   **   ~~~   ** inconsistent supply air fan operation modes in coil and unitary system objects.\n   ** Warning ** The Standard Ratings is calculated for Coil:Heating:DX:SingleSpeed = PTHP 1 SPD DX HTG COIL 5 but not at the AHRI test condition due to curve out of bound.\n   **   ~~~   **  Review the Standard Ratings calculations in the Engineering Reference for this coil type. Also, use Output:Diagnostics, DisplayExtraWarnings for further guidance.\n   ** Warning ** Sizing: Coil:Heating:DX:SingleSpeed PTHP 1 SPD DX HTG COIL 5: Rated air volume flow rate per watt of rated total heating capacity is out of range.\n   **   ~~~   ** Min Rated Vol Flow Per Watt=[4.027E-005], Rated Vol Flow Per Watt=[12735225676578670.000], Max Rated Vol Flow Per Watt=[6.041E-005]. See Input-Output Reference Manual for valid range.\n   ** Warning ** Coil:Heating:DX:SingleSpeed \"PTHP 1 SPD DX HTG COIL 5\" - Air volume flow rate per watt of rated total heating capacity is out of range at 12679837589407970. m3/s/W.\n   **   ~~~   **  During Warmup, Environment=MONTREAL INT'L ANN CLG .4% CONDNS DB=>MWB, at Simulation time=07/21 00:00 - 00:10\n   **   ~~~   ** Expected range for VolumeFlowPerRatedTotalCapacity=[2.684E-005--8.056E-005]\n   **   ~~~   ** Possible causes include inconsistent air flow rates in system components or\n   **   ~~~   ** inconsistent supply air fan operation modes in coil and unitary system objects.\n   ** Warning ** The Standard Ratings is calculated for Coil:Heating:DX:SingleSpeed = PTHP 1 SPD DX HTG COIL 10 but not at the AHRI test condition due to curve out of bound.\n   **   ~~~   **  Review the Standard Ratings calculations in the Engineering Reference for this coil type. Also, use Output:Diagnostics, DisplayExtraWarnings for further guidance.\n   ** Warning ** Sizing: Coil:Heating:DX:SingleSpeed PTHP 1 SPD DX HTG COIL 10: Rated air volume flow rate per watt of rated total heating capacity is out of range.\n   **   ~~~   ** Min Rated Vol Flow Per Watt=[4.027E-005], Rated Vol Flow Per Watt=[12376145009202876.000], Max Rated Vol Flow Per Watt=[6.041E-005]. See Input-Output Reference Manual for valid range.\n   ** Warning ** Coil:Heating:DX:SingleSpeed \"PTHP 1 SPD DX HTG COIL 10\" - Air volume flow rate per watt of rated total heating capacity is out of range at 12322318636901704. m3/s/W.\n   **   ~~~   **  During Warmup, Environment=MONTREAL INT'L ANN CLG .4% CONDNS DB=>MWB, at Simulation time=07/21 00:00 - 00:10\n   **   ~~~   ** Expected range for VolumeFlowPerRatedTotalCapacity=[2.684E-005--8.056E-005]\n   **   ~~~   ** Possible causes include inconsistent air flow rates in system components or\n   **   ~~~   ** inconsistent supply air fan operation modes in coil and unitary system objects.\n   ** Warning ** The Standard Ratings is calculated for Coil:Heating:DX:SingleSpeed = PTHP 1 SPD DX HTG COIL 20 but not at the AHRI test condition due to curve out of bound.\n   **   ~~~   **  Review the Standard Ratings calculations in the Engineering Reference for this coil type. Also, use Output:Diagnostics, DisplayExtraWarnings for further guidance.\n   ** Warning ** Sizing: Coil:Heating:DX:SingleSpeed PTHP 1 SPD DX HTG COIL 20: Rated air volume flow rate per watt of rated total heating capacity is out of range.\n   **   ~~~   ** Min Rated Vol Flow Per Watt=[4.027E-005], Rated Vol Flow Per Watt=[12360153797427820.000], Max Rated Vol Flow Per Watt=[6.041E-005]. See Input-Output Reference Manual for valid range.\n   ** Warning ** Coil:Heating:DX:SingleSpeed \"PTHP 1 SPD DX HTG COIL 20\" - Air volume flow rate per watt of rated total heating capacity is out of range at 12306396974159722. m3/s/W.\n   **   ~~~   **  During Warmup, Environment=MONTREAL INT'L ANN CLG .4% CONDNS DB=>MWB, at Simulation time=07/21 00:00 - 00:10\n   **   ~~~   ** Expected range for VolumeFlowPerRatedTotalCapacity=[2.684E-005--8.056E-005]\n   **   ~~~   ** Possible causes include inconsistent air flow rates in system components or\n   **   ~~~   ** inconsistent supply air fan operation modes in coil and unitary system objects.\n   ** Warning ** The Standard Ratings is calculated for Coil:Heating:DX:SingleSpeed = PTHP 1 SPD DX HTG COIL 15 but not at the AHRI test condition due to curve out of bound.\n   **   ~~~   **  Review the Standard Ratings calculations in the Engineering Reference for this coil type. Also, use Output:Diagnostics, DisplayExtraWarnings for further guidance.\n   ** Warning ** Sizing: Coil:Heating:DX:SingleSpeed PTHP 1 SPD DX HTG COIL 15: Rated air volume flow rate per watt of rated total heating capacity is out of range.\n   **   ~~~   ** Min Rated Vol Flow Per Watt=[4.027E-005], Rated Vol Flow Per Watt=[1484225717850299.250], Max Rated Vol Flow Per Watt=[6.041E-005]. See Input-Output Reference Manual for valid range.\n   ** Warning ** Coil:Heating:DX:SingleSpeed \"PTHP 1 SPD DX HTG COIL 15\" - Air volume flow rate per watt of rated total heating capacity is out of range at 1477770518270092. m3/s/W.\n   **   ~~~   **  During Warmup, Environment=MONTREAL INT'L ANN CLG .4% CONDNS DB=>MWB, at Simulation time=07/21 00:00 - 00:10\n   **   ~~~   ** Expected range for VolumeFlowPerRatedTotalCapacity=[2.684E-005--8.056E-005]\n   **   ~~~   ** Possible causes include inconsistent air flow rates in system components or\n   **   ~~~   ** inconsistent supply air fan operation modes in coil and unitary system objects.\n   ** Warning ** The Standard Ratings is calculated for Coil:Heating:DX:SingleSpeed = PTHP 1 SPD DX HTG COIL 9 but not at the AHRI test condition due to curve out of bound.\n   **   ~~~   **  Review the Standard Ratings calculations in the Engineering Reference for this coil type. Also, use Output:Diagnostics, DisplayExtraWarnings for further guidance.\n   ** Warning ** Sizing: Coil:Heating:DX:SingleSpeed PTHP 1 SPD DX HTG COIL 9: Rated air volume flow rate per watt of rated total heating capacity is out of range.\n   **   ~~~   ** Min Rated Vol Flow Per Watt=[4.027E-005], Rated Vol Flow Per Watt=[12741347367286154.000], Max Rated Vol Flow Per Watt=[6.041E-005]. See Input-Output Reference Manual for valid range.\n   ** Warning ** Coil:Heating:DX:SingleSpeed \"PTHP 1 SPD DX HTG COIL 9\" - Air volume flow rate per watt of rated total heating capacity is out of range at 12685932655637242. m3/s/W.\n   **   ~~~   **  During Warmup, Environment=MONTREAL INT'L ANN CLG .4% CONDNS DB=>MWB, at Simulation time=07/21 00:00 - 00:10\n   **   ~~~   ** Expected range for VolumeFlowPerRatedTotalCapacity=[2.684E-005--8.056E-005]\n   **   ~~~   ** Possible causes include inconsistent air flow rates in system components or\n   **   ~~~   ** inconsistent supply air fan operation modes in coil and unitary system objects.\n   ** Warning ** The Standard Ratings is calculated for Coil:Heating:DX:SingleSpeed = PTHP 1 SPD DX HTG COIL 26 but not at the AHRI test condition due to curve out of bound.\n   **   ~~~   **  Review the Standard Ratings calculations in the Engineering Reference for this coil type. Also, use Output:Diagnostics, DisplayExtraWarnings for further guidance.\n   ** Warning ** Sizing: Coil:Heating:DX:SingleSpeed PTHP 1 SPD DX HTG COIL 26: Rated air volume flow rate per watt of rated total heating capacity is out of range.\n   **   ~~~   ** Min Rated Vol Flow Per Watt=[4.027E-005], Rated Vol Flow Per Watt=[5420683968177954.000], Max Rated Vol Flow Per Watt=[6.041E-005]. See Input-Output Reference Manual for valid range.\n   ** Warning ** Coil:Heating:DX:SingleSpeed \"PTHP 1 SPD DX HTG COIL 26\" - Air volume flow rate per watt of rated total heating capacity is out of range at 5397108310880696. m3/s/W.\n   **   ~~~   **  During Warmup, Environment=MONTREAL INT'L ANN CLG .4% CONDNS DB=>MWB, at Simulation time=07/21 00:00 - 00:10\n   **   ~~~   ** Expected range for VolumeFlowPerRatedTotalCapacity=[2.684E-005--8.056E-005]\n   **   ~~~   ** Possible causes include inconsistent air flow rates in system components or\n   **   ~~~   ** inconsistent supply air fan operation modes in coil and unitary system objects.\n   ** Warning ** The Standard Ratings is calculated for Coil:Heating:DX:SingleSpeed = PTHP 1 SPD DX HTG COIL 24 but not at the AHRI test condition due to curve out of bound.\n   **   ~~~   **  Review the Standard Ratings calculations in the Engineering Reference for this coil type. Also, use Output:Diagnostics, DisplayExtraWarnings for further guidance.\n   ** Warning ** Sizing: Coil:Heating:DX:SingleSpeed PTHP 1 SPD DX HTG COIL 24: Rated air volume flow rate per watt of rated total heating capacity is out of range.\n   **   ~~~   ** Min Rated Vol Flow Per Watt=[4.027E-005], Rated Vol Flow Per Watt=[12844563906053746.000], Max Rated Vol Flow Per Watt=[6.041E-005]. See Input-Output Reference Manual for valid range.\n   ** Warning ** Coil:Heating:DX:SingleSpeed \"PTHP 1 SPD DX HTG COIL 24\" - Air volume flow rate per watt of rated total heating capacity is out of range at 12788700284680586. m3/s/W.\n   **   ~~~   **  During Warmup, Environment=MONTREAL INT'L ANN CLG .4% CONDNS DB=>MWB, at Simulation time=07/21 00:00 - 00:10\n   **   ~~~   ** Expected range for VolumeFlowPerRatedTotalCapacity=[2.684E-005--8.056E-005]\n   **   ~~~   ** Possible causes include inconsistent air flow rates in system components or\n   **   ~~~   ** inconsistent supply air fan operation modes in coil and unitary system objects.\n   ** Warning ** The Standard Ratings is calculated for Coil:Heating:DX:SingleSpeed = PTHP 1 SPD DX HTG COIL 17 but not at the AHRI test condition due to curve out of bound.\n   **   ~~~   **  Review the Standard Ratings calculations in the Engineering Reference for this coil type. Also, use Output:Diagnostics, DisplayExtraWarnings for further guidance.\n   ** Warning ** Sizing: Coil:Heating:DX:SingleSpeed PTHP 1 SPD DX HTG COIL 17: Rated air volume flow rate per watt of rated total heating capacity is out of range.\n   **   ~~~   ** Min Rated Vol Flow Per Watt=[4.027E-005], Rated Vol Flow Per Watt=[10108104502866582.000], Max Rated Vol Flow Per Watt=[6.041E-005]. See Input-Output Reference Manual for valid range.\n   ** Warning ** Coil:Heating:DX:SingleSpeed \"PTHP 1 SPD DX HTG COIL 17\" - Air volume flow rate per watt of rated total heating capacity is out of range at 10064142300110726. m3/s/W.\n   **   ~~~   **  During Warmup, Environment=MONTREAL INT'L ANN CLG .4% CONDNS DB=>MWB, at Simulation time=07/21 00:00 - 00:10\n   **   ~~~   ** Expected range for VolumeFlowPerRatedTotalCapacity=[2.684E-005--8.056E-005]\n   **   ~~~   ** Possible causes include inconsistent air flow rates in system components or\n   **   ~~~   ** inconsistent supply air fan operation modes in coil and unitary system objects.\n   ** Warning ** The Standard Ratings is calculated for Coil:Heating:DX:SingleSpeed = PTHP 1 SPD DX HTG COIL 18 but not at the AHRI test condition due to curve out of bound.\n   **   ~~~   **  Review the Standard Ratings calculations in the Engineering Reference for this coil type. Also, use Output:Diagnostics, DisplayExtraWarnings for further guidance.\n   ** Warning ** Sizing: Coil:Heating:DX:SingleSpeed PTHP 1 SPD DX HTG COIL 18: Rated air volume flow rate per watt of rated total heating capacity is out of range.\n   **   ~~~   ** Min Rated Vol Flow Per Watt=[4.027E-005], Rated Vol Flow Per Watt=[10115051886357378.000], Max Rated Vol Flow Per Watt=[6.041E-005]. See Input-Output Reference Manual for valid range.\n   ** Warning ** Coil:Heating:DX:SingleSpeed \"PTHP 1 SPD DX HTG COIL 18\" - Air volume flow rate per watt of rated total heating capacity is out of range at 10071059468017426. m3/s/W.\n   **   ~~~   **  During Warmup, Environment=MONTREAL INT'L ANN CLG .4% CONDNS DB=>MWB, at Simulation time=07/21 00:00 - 00:10\n   **   ~~~   ** Expected range for VolumeFlowPerRatedTotalCapacity=[2.684E-005--8.056E-005]\n   **   ~~~   ** Possible causes include inconsistent air flow rates in system components or\n   **   ~~~   ** inconsistent supply air fan operation modes in coil and unitary system objects.\n   ** Warning ** The Standard Ratings is calculated for Coil:Heating:DX:SingleSpeed = PTHP 1 SPD DX HTG COIL 19 but not at the AHRI test condition due to curve out of bound.\n   **   ~~~   **  Review the Standard Ratings calculations in the Engineering Reference for this coil type. Also, use Output:Diagnostics, DisplayExtraWarnings for further guidance.\n   ** Warning ** Sizing: Coil:Heating:DX:SingleSpeed PTHP 1 SPD DX HTG COIL 19: Rated air volume flow rate per watt of rated total heating capacity is out of range.\n   **   ~~~   ** Min Rated Vol Flow Per Watt=[4.027E-005], Rated Vol Flow Per Watt=[3028443184718467.000], Max Rated Vol Flow Per Watt=[6.041E-005]. See Input-Output Reference Manual for valid range.\n   ** Warning ** Coil:Heating:DX:SingleSpeed \"PTHP 1 SPD DX HTG COIL 19\" - Air volume flow rate per watt of rated total heating capacity is out of range at 3015271869237564. m3/s/W.\n   **   ~~~   **  During Warmup, Environment=MONTREAL INT'L ANN CLG .4% CONDNS DB=>MWB, at Simulation time=07/21 00:00 - 00:10\n   **   ~~~   ** Expected range for VolumeFlowPerRatedTotalCapacity=[2.684E-005--8.056E-005]\n   **   ~~~   ** Possible causes include inconsistent air flow rates in system components or\n   **   ~~~   ** inconsistent supply air fan operation modes in coil and unitary system objects.\n   ** Warning ** The Standard Ratings is calculated for Coil:Heating:DX:SingleSpeed = PTHP 1 SPD DX HTG COIL 22 but not at the AHRI test condition due to curve out of bound.\n   **   ~~~   **  Review the Standard Ratings calculations in the Engineering Reference for this coil type. Also, use Output:Diagnostics, DisplayExtraWarnings for further guidance.\n   ** Warning ** Sizing: Coil:Heating:DX:SingleSpeed PTHP 1 SPD DX HTG COIL 22: Rated air volume flow rate per watt of rated total heating capacity is out of range.\n   **   ~~~   ** Min Rated Vol Flow Per Watt=[4.027E-005], Rated Vol Flow Per Watt=[1413088055004406.250], Max Rated Vol Flow Per Watt=[6.041E-005]. See Input-Output Reference Manual for valid range.\n   ** Warning ** Coil:Heating:DX:SingleSpeed \"PTHP 1 SPD DX HTG COIL 22\" - Air volume flow rate per watt of rated total heating capacity is out of range at 1406942247591319. m3/s/W.\n   **   ~~~   **  During Warmup, Environment=MONTREAL INT'L ANN CLG .4% CONDNS DB=>MWB, at Simulation time=07/21 00:00 - 00:10\n   **   ~~~   ** Expected range for VolumeFlowPerRatedTotalCapacity=[2.684E-005--8.056E-005]\n   **   ~~~   ** Possible causes include inconsistent air flow rates in system components or\n   **   ~~~   ** inconsistent supply air fan operation modes in coil and unitary system objects.\n   ** Warning ** The Standard Ratings is calculated for Coil:Heating:DX:SingleSpeed = PTHP 1 SPD DX HTG COIL 25 but not at the AHRI test condition due to curve out of bound.\n   **   ~~~   **  Review the Standard Ratings calculations in the Engineering Reference for this coil type. Also, use Output:Diagnostics, DisplayExtraWarnings for further guidance.\n   ** Warning ** Sizing: Coil:Heating:DX:SingleSpeed PTHP 1 SPD DX HTG COIL 25: Rated air volume flow rate per watt of rated total heating capacity is out of range.\n   **   ~~~   ** Min Rated Vol Flow Per Watt=[4.027E-005], Rated Vol Flow Per Watt=[1483781520721361.000], Max Rated Vol Flow Per Watt=[6.041E-005]. See Input-Output Reference Manual for valid range.\n   ** Warning ** Coil:Heating:DX:SingleSpeed \"PTHP 1 SPD DX HTG COIL 25\" - Air volume flow rate per watt of rated total heating capacity is out of range at 1477328253044830. m3/s/W.\n   **   ~~~   **  During Warmup, Environment=MONTREAL INT'L ANN CLG .4% CONDNS DB=>MWB, at Simulation time=07/21 00:00 - 00:10\n   **   ~~~   ** Expected range for VolumeFlowPerRatedTotalCapacity=[2.684E-005--8.056E-005]\n   **   ~~~   ** Possible causes include inconsistent air flow rates in system components or\n   **   ~~~   ** inconsistent supply air fan operation modes in coil and unitary system objects.\n   ** Warning ** The Standard Ratings is calculated for Coil:Heating:DX:SingleSpeed = PTHP 1 SPD DX HTG COIL 1 but not at the AHRI test condition due to curve out of bound.\n   **   ~~~   **  Review the Standard Ratings calculations in the Engineering Reference for this coil type. Also, use Output:Diagnostics, DisplayExtraWarnings for further guidance.\n   ** Warning ** Sizing: Coil:Heating:DX:SingleSpeed PTHP 1 SPD DX HTG COIL 1: Rated air volume flow rate per watt of rated total heating capacity is out of range.\n   **   ~~~   ** Min Rated Vol Flow Per Watt=[4.027E-005], Rated Vol Flow Per Watt=[1463808066672522.500], Max Rated Vol Flow Per Watt=[6.041E-005]. See Input-Output Reference Manual for valid range.\n   ** Warning ** Coil:Heating:DX:SingleSpeed \"PTHP 1 SPD DX HTG COIL 1\" - Air volume flow rate per watt of rated total heating capacity is out of range at 1457441667610813. m3/s/W.\n   **   ~~~   **  During Warmup, Environment=MONTREAL INT'L ANN CLG .4% CONDNS DB=>MWB, at Simulation time=07/21 00:00 - 00:10\n   **   ~~~   ** Expected range for VolumeFlowPerRatedTotalCapacity=[2.684E-005--8.056E-005]\n   **   ~~~   ** Possible causes include inconsistent air flow rates in system components or\n   **   ~~~   ** inconsistent supply air fan operation modes in coil and unitary system objects.\n   ** Warning ** The Standard Ratings is calculated for Coil:Heating:DX:SingleSpeed = PTHP 1 SPD DX HTG COIL 3 but not at the AHRI test condition due to curve out of bound.\n   **   ~~~   **  Review the Standard Ratings calculations in the Engineering Reference for this coil type. Also, use Output:Diagnostics, DisplayExtraWarnings for further guidance.\n   ** Warning ** Sizing: Coil:Heating:DX:SingleSpeed PTHP 1 SPD DX HTG COIL 3: Rated air volume flow rate per watt of rated total heating capacity is out of range.\n   **   ~~~   ** Min Rated Vol Flow Per Watt=[4.027E-005], Rated Vol Flow Per Watt=[1464363868185219.500], Max Rated Vol Flow Per Watt=[6.041E-005]. See Input-Output Reference Manual for valid range.\n   ** Warning ** Coil:Heating:DX:SingleSpeed \"PTHP 1 SPD DX HTG COIL 3\" - Air volume flow rate per watt of rated total heating capacity is out of range at 1457995051829665. m3/s/W.\n   **   ~~~   **  During Warmup, Environment=MONTREAL INT'L ANN CLG .4% CONDNS DB=>MWB, at Simulation time=07/21 00:00 - 00:10\n   **   ~~~   ** Expected range for VolumeFlowPerRatedTotalCapacity=[2.684E-005--8.056E-005]\n   **   ~~~   ** Possible causes include inconsistent air flow rates in system components or\n   **   ~~~   ** inconsistent supply air fan operation modes in coil and unitary system objects.\n   ** Warning ** The Standard Ratings is calculated for Coil:Heating:DX:SingleSpeed = PTHP 1 SPD DX HTG COIL 2 but not at the AHRI test condition due to curve out of bound.\n   **   ~~~   **  Review the Standard Ratings calculations in the Engineering Reference for this coil type. Also, use Output:Diagnostics, DisplayExtraWarnings for further guidance.\n   ** Warning ** Sizing: Coil:Heating:DX:SingleSpeed PTHP 1 SPD DX HTG COIL 2: Rated air volume flow rate per watt of rated total heating capacity is out of range.\n   **   ~~~   ** Min Rated Vol Flow Per Watt=[4.027E-005], Rated Vol Flow Per Watt=[1206426821832592.500], Max Rated Vol Flow Per Watt=[6.041E-005]. See Input-Output Reference Manual for valid range.\n   ** Warning ** Coil:Heating:DX:SingleSpeed \"PTHP 1 SPD DX HTG COIL 2\" - Air volume flow rate per watt of rated total heating capacity is out of range at 1201179826163279. m3/s/W.\n   **   ~~~   **  During Warmup, Environment=MONTREAL INT'L ANN CLG .4% CONDNS DB=>MWB, at Simulation time=07/21 00:00 - 00:10\n   **   ~~~   ** Expected range for VolumeFlowPerRatedTotalCapacity=[2.684E-005--8.056E-005]\n   **   ~~~   ** Possible causes include inconsistent air flow rates in system components or\n   **   ~~~   ** inconsistent supply air fan operation modes in coil and unitary system objects.\n   ** Warning ** The Standard Ratings is calculated for Coil:Heating:DX:SingleSpeed = PTHP 1 SPD DX HTG COIL 27 but not at the AHRI test condition due to curve out of bound.\n   **   ~~~   **  Review the Standard Ratings calculations in the Engineering Reference for this coil type. Also, use Output:Diagnostics, DisplayExtraWarnings for further guidance.\n   ** Warning ** Sizing: Coil:Heating:DX:SingleSpeed PTHP 1 SPD DX HTG COIL 27: Rated air volume flow rate per watt of rated total heating capacity is out of range.\n   **   ~~~   ** Min Rated Vol Flow Per Watt=[4.027E-005], Rated Vol Flow Per Watt=[1169112240993911.750], Max Rated Vol Flow Per Watt=[6.041E-005]. See Input-Output Reference Manual for valid range.\n   ** Warning ** Coil:Heating:DX:SingleSpeed \"PTHP 1 SPD DX HTG COIL 27\" - Air volume flow rate per watt of rated total heating capacity is out of range at 1164027534027501. m3/s/W.\n   **   ~~~   **  During Warmup, Environment=MONTREAL INT'L ANN CLG .4% CONDNS DB=>MWB, at Simulation time=07/21 00:00 - 00:10\n   **   ~~~   ** Expected range for VolumeFlowPerRatedTotalCapacity=[2.684E-005--8.056E-005]\n   **   ~~~   ** Possible causes include inconsistent air flow rates in system components or\n   **   ~~~   ** inconsistent supply air fan operation modes in coil and unitary system objects.\n   ** Warning ** The Standard Ratings is calculated for Coil:Heating:DX:SingleSpeed = PTHP 1 SPD DX HTG COIL 14 but not at the AHRI test condition due to curve out of bound.\n   **   ~~~   **  Review the Standard Ratings calculations in the Engineering Reference for this coil type. Also, use Output:Diagnostics, DisplayExtraWarnings for further guidance.\n   ** Warning ** Sizing: Coil:Heating:DX:SingleSpeed PTHP 1 SPD DX HTG COIL 14: Rated air volume flow rate per watt of rated total heating capacity is out of range.\n   **   ~~~   ** Min Rated Vol Flow Per Watt=[4.027E-005], Rated Vol Flow Per Watt=[2430718416389860.500], Max Rated Vol Flow Per Watt=[6.041E-005]. See Input-Output Reference Manual for valid range.\n   ** Warning ** Coil:Heating:DX:SingleSpeed \"PTHP 1 SPD DX HTG COIL 14\" - Air volume flow rate per watt of rated total heating capacity is out of range at 2420146727520456. m3/s/W.\n   **   ~~~   **  During Warmup, Environment=MONTREAL INT'L ANN CLG .4% CONDNS DB=>MWB, at Simulation time=07/21 00:00 - 00:10\n   **   ~~~   ** Expected range for VolumeFlowPerRatedTotalCapacity=[2.684E-005--8.056E-005]\n   **   ~~~   ** Possible causes include inconsistent air flow rates in system components or\n   **   ~~~   ** inconsistent supply air fan operation modes in coil and unitary system objects.\n   ** Warning ** The Standard Ratings is calculated for Coil:Heating:DX:SingleSpeed = PTHP 1 SPD DX HTG COIL 11 but not at the AHRI test condition due to curve out of bound.\n   **   ~~~   **  Review the Standard Ratings calculations in the Engineering Reference for this coil type. Also, use Output:Diagnostics, DisplayExtraWarnings for further guidance.\n   ** Warning ** Sizing: Coil:Heating:DX:SingleSpeed PTHP 1 SPD DX HTG COIL 11: Rated air volume flow rate per watt of rated total heating capacity is out of range.\n   **   ~~~   ** Min Rated Vol Flow Per Watt=[4.027E-005], Rated Vol Flow Per Watt=[1279071554104115.250], Max Rated Vol Flow Per Watt=[6.041E-005]. See Input-Output Reference Manual for valid range.\n   ** Warning ** Coil:Heating:DX:SingleSpeed \"PTHP 1 SPD DX HTG COIL 11\" - Air volume flow rate per watt of rated total heating capacity is out of range at 1273508611716170. m3/s/W.\n   **   ~~~   **  During Warmup, Environment=MONTREAL INT'L ANN CLG .4% CONDNS DB=>MWB, at Simulation time=07/21 00:00 - 00:10\n   **   ~~~   ** Expected range for VolumeFlowPerRatedTotalCapacity=[2.684E-005--8.056E-005]\n   **   ~~~   ** Possible causes include inconsistent air flow rates in system components or\n   **   ~~~   ** inconsistent supply air fan operation modes in coil and unitary system objects.\n   ** Warning ** The Standard Ratings is calculated for Coil:Heating:DX:SingleSpeed = PTHP 1 SPD DX HTG COIL 6 but not at the AHRI test condition due to curve out of bound.\n   **   ~~~   **  Review the Standard Ratings calculations in the Engineering Reference for this coil type. Also, use Output:Diagnostics, DisplayExtraWarnings for further guidance.\n   ** Warning ** Sizing: Coil:Heating:DX:SingleSpeed PTHP 1 SPD DX HTG COIL 6: Rated air volume flow rate per watt of rated total heating capacity is out of range.\n   **   ~~~   ** Min Rated Vol Flow Per Watt=[4.027E-005], Rated Vol Flow Per Watt=[1169400377335431.500], Max Rated Vol Flow Per Watt=[6.041E-005]. See Input-Output Reference Manual for valid range.\n   ** Warning ** Coil:Heating:DX:SingleSpeed \"PTHP 1 SPD DX HTG COIL 6\" - Air volume flow rate per watt of rated total heating capacity is out of range at 1164314417205457. m3/s/W.\n   **   ~~~   **  During Warmup, Environment=MONTREAL INT'L ANN CLG .4% CONDNS DB=>MWB, at Simulation time=07/21 00:00 - 00:10\n   **   ~~~   ** Expected range for VolumeFlowPerRatedTotalCapacity=[2.684E-005--8.056E-005]\n   **   ~~~   ** Possible causes include inconsistent air flow rates in system components or\n   **   ~~~   ** inconsistent supply air fan operation modes in coil and unitary system objects.\n   ** Warning ** The Standard Ratings is calculated for Coil:Heating:DX:SingleSpeed = PTHP 1 SPD DX HTG COIL 12 but not at the AHRI test condition due to curve out of bound.\n   **   ~~~   **  Review the Standard Ratings calculations in the Engineering Reference for this coil type. Also, use Output:Diagnostics, DisplayExtraWarnings for further guidance.\n   ** Warning ** Sizing: Coil:Heating:DX:SingleSpeed PTHP 1 SPD DX HTG COIL 12: Rated air volume flow rate per watt of rated total heating capacity is out of range.\n   **   ~~~   ** Min Rated Vol Flow Per Watt=[4.027E-005], Rated Vol Flow Per Watt=[1127885979403342.000], Max Rated Vol Flow Per Watt=[6.041E-005]. See Input-Output Reference Manual for valid range.\n   ** Warning ** Coil:Heating:DX:SingleSpeed \"PTHP 1 SPD DX HTG COIL 12\" - Air volume flow rate per watt of rated total heating capacity is out of range at 1122980573835171. m3/s/W.\n   **   ~~~   **  During Warmup, Environment=MONTREAL INT'L ANN CLG .4% CONDNS DB=>MWB, at Simulation time=07/21 00:00 - 00:10\n   **   ~~~   ** Expected range for VolumeFlowPerRatedTotalCapacity=[2.684E-005--8.056E-005]\n   **   ~~~   ** Possible causes include inconsistent air flow rates in system components or\n   **   ~~~   ** inconsistent supply air fan operation modes in coil and unitary system objects.\n   ** Warning ** The Standard Ratings is calculated for Coil:Heating:DX:SingleSpeed = PTHP 1 SPD DX HTG COIL 7 but not at the AHRI test condition due to curve out of bound.\n   **   ~~~   **  Review the Standard Ratings calculations in the Engineering Reference for this coil type. Also, use Output:Diagnostics, DisplayExtraWarnings for further guidance.\n   ** Warning ** Sizing: Coil:Heating:DX:SingleSpeed PTHP 1 SPD DX HTG COIL 7: Rated air volume flow rate per watt of rated total heating capacity is out of range.\n   **   ~~~   ** Min Rated Vol Flow Per Watt=[4.027E-005], Rated Vol Flow Per Watt=[1161677863317566.750], Max Rated Vol Flow Per Watt=[6.041E-005]. See Input-Output Reference Manual for valid range.\n   ** Warning ** Coil:Heating:DX:SingleSpeed \"PTHP 1 SPD DX HTG COIL 7\" - Air volume flow rate per watt of rated total heating capacity is out of range at 1156625489972033. m3/s/W.\n   **   ~~~   **  During Warmup, Environment=MONTREAL INT'L ANN CLG .4% CONDNS DB=>MWB, at Simulation time=07/21 00:00 - 00:10\n   **   ~~~   ** Expected range for VolumeFlowPerRatedTotalCapacity=[2.684E-005--8.056E-005]\n   **   ~~~   ** Possible causes include inconsistent air flow rates in system components or\n   **   ~~~   ** inconsistent supply air fan operation modes in coil and unitary system objects.\n   ** Warning ** The Standard Ratings is calculated for Coil:Heating:DX:SingleSpeed = PTHP 1 SPD DX HTG COIL 13 but not at the AHRI test condition due to curve out of bound.\n   **   ~~~   **  Review the Standard Ratings calculations in the Engineering Reference for this coil type. Also, use Output:Diagnostics, DisplayExtraWarnings for further guidance.\n   ** Warning ** Sizing: Coil:Heating:DX:SingleSpeed PTHP 1 SPD DX HTG COIL 13: Rated air volume flow rate per watt of rated total heating capacity is out of range.\n   **   ~~~   ** Min Rated Vol Flow Per Watt=[4.027E-005], Rated Vol Flow Per Watt=[1205858710282775.500], Max Rated Vol Flow Per Watt=[6.041E-005]. See Input-Output Reference Manual for valid range.\n   ** Warning ** Coil:Heating:DX:SingleSpeed \"PTHP 1 SPD DX HTG COIL 13\" - Air volume flow rate per watt of rated total heating capacity is out of range at 1200614185446162. m3/s/W.\n   **   ~~~   **  During Warmup, Environment=MONTREAL INT'L ANN CLG .4% CONDNS DB=>MWB, at Simulation time=07/21 00:00 - 00:10\n   **   ~~~   ** Expected range for VolumeFlowPerRatedTotalCapacity=[2.684E-005--8.056E-005]\n   **   ~~~   ** Possible causes include inconsistent air flow rates in system components or\n   **   ~~~   ** inconsistent supply air fan operation modes in coil and unitary system objects.\n   ** Warning ** Water heater = 600 GAL WATER HEATER - 600 KBTU/HR:  Recovery Efficiency and Energy Factor could not be calculated during the test for standard ratings\n   **   ~~~   ** Setpoint was never recovered and/or heater never turned on\n   ** Warning ** Output:Meter: invalid Key Name=\"DISTRICTCOOLING:FACILITY\" - not found.\n   ** Warning ** Output:Meter: invalid Key Name=\"DISTRICTHEATING:FACILITY\" - not found.\n   ** Warning ** Output:Meter:MeterFileOnly requested for \"Electricity:Facility\" (TimeStep), already on \"Output:Meter\". Will report to both eplusout.eso and eplusout.mtr\n   ************* Testing Individual Branch Integrity\n   ************* All Branches passed integrity testing\n   ************* Testing Individual Supply Air Path Integrity\n   ************* All Supply Air Paths passed integrity testing\n   ************* Testing Individual Return Air Path Integrity\n   ************* All Return Air Paths passed integrity testing\n   ************* No node connection errors were found.\n   ************* Beginning Simulation\n   ** Warning ** CalcEquipmentFlowRates: \"ESTAR MFHR WHOLE BUILDING WATER USE EQUIPMENT\" - Target water temperature is greater than the hot water temperature by (3.96 C)\n   **   ~~~   **  Environment=MONTREAL INT'L ANN CLG .4% CONDNS DB=>MWB, at Simulation time=07/21 00:00 - 00:10\n   **   ~~~   ** ...target water temperature     = 60.00 C\n   **   ~~~   ** ...hot water temperature        = 56.04 C\n   **   ~~~   ** ...Target water temperature should be less than or equal to the hot water temperature. Verify temperature setpoints and schedules.\n   ** Warning ** Processing Monthly Tabular Reports: Variable names not valid for this simulation\n   **   ~~~   ** ...use Output:Diagnostics,DisplayExtraWarnings; to show more details on individual variables.\n   ** Warning ** CalcDoe2DXCoil: Coil:Cooling:DX:SingleSpeed \"PTHP 1 SPD DX CLG COIL 8\" - Air-cooled condenser inlet dry-bulb temperature below 0 C. Outdoor dry-bulb temperature = -3.98\n   **   ~~~   **  ... Occurrence info = RUN PERIOD 1, 03/20 17:00 - 17:03\n   **   ~~~   ** ... Operation at low ambient temperatures may require special performance curves.\n   ** Warning ** CalcDoe2DXCoil: Coil:Cooling:DX:SingleSpeed \"PTHP 1 SPD DX CLG COIL 19\" - Air-cooled condenser inlet dry-bulb temperature below 0 C. Outdoor dry-bulb temperature = -0.78\n   **   ~~~   **  ... Occurrence info = RUN PERIOD 1, 03/21 17:00 - 17:03\n   **   ~~~   ** ... Operation at low ambient temperatures may require special performance curves.\n   ** Warning ** The resource referenced by LifeCycleCost:UsePriceEscalation= \"U.S. AVG  COMMERCIAL-ELECTRICITY\" has no energy cost. \n   **   ~~~   ** ... It is likely that the wrong resource is used. The resource should match the meter used in Utility:Tariff.\n   ** Warning ** The resource referenced by LifeCycleCost:UsePriceEscalation= \"U.S. AVG  COMMERCIAL-DISTILLATE OIL\" has no energy cost. \n   **   ~~~   ** ... It is likely that the wrong resource is used. The resource should match the meter used in Utility:Tariff.\n   ** Warning ** The resource referenced by LifeCycleCost:UsePriceEscalation= \"U.S. AVG  COMMERCIAL-RESIDUAL OIL\" has no energy cost. \n   **   ~~~   ** ... It is likely that the wrong resource is used. The resource should match the meter used in Utility:Tariff.\n   ** Warning ** The resource referenced by LifeCycleCost:UsePriceEscalation= \"U.S. AVG  COMMERCIAL-NATURAL GAS\" has no energy cost. \n   **   ~~~   ** ... It is likely that the wrong resource is used. The resource should match the meter used in Utility:Tariff.\n   ** Warning ** The resource referenced by LifeCycleCost:UsePriceEscalation= \"U.S. AVG  COMMERCIAL-COAL\" has no energy cost. \n   **   ~~~   ** ... It is likely that the wrong resource is used. The resource should match the meter used in Utility:Tariff.\n   ************* Simulation Error Summary *************\n   ************* There are 33 unused schedules in input.\n   ************* There are 33 unused week schedules in input.\n   ************* There are 89 unused day schedules in input.\n   ************* Use Output:Diagnostics,DisplayUnusedSchedules; to see them.\n   *************\n   ************* ===== Recurring Error Summary =====\n   ************* The following recurring error messages occurred.\n   *************\n   *************  ** Warning ** Coil:Heating:DX:SingleSpeed \"PTHP 1 SPD DX HTG COIL\" - Air volume flow rate per watt of rated total heating capacity is out of range error continues...\n   *************  **   ~~~   **   This error occurred 906 total times;\n   *************  **   ~~~   **   during Warmup 91 times;\n   *************  **   ~~~   **   during Sizing 0 times.\n   *************  **   ~~~   **   Max=915452029008214.500000  Min=0.977385\n   *************\n   *************  ** Warning ** Coil:Heating:DX:SingleSpeed \"PTHP 1 SPD DX HTG COIL 4\" - Air volume flow rate per watt of rated total heating capacity is out of range error continues...\n   *************  **   ~~~   **   This error occurred 961 total times;\n   *************  **   ~~~   **   during Warmup 96 times;\n   *************  **   ~~~   **   during Sizing 0 times.\n   *************  **   ~~~   **   Max=1156253338696201.000000  Min=0.977321\n   *************\n   *************  ** Warning ** Coil:Heating:DX:SingleSpeed \"PTHP 1 SPD DX HTG COIL 21\" - Air volume flow rate per watt of rated total heating capacity is out of range error continues...\n   *************  **   ~~~   **   This error occurred 966 total times;\n   *************  **   ~~~   **   during Warmup 96 times;\n   *************  **   ~~~   **   during Sizing 0 times.\n   *************  **   ~~~   **   Max=1199108222026180.500000  Min=0.977347\n   *************\n   *************  ** Warning ** Coil:Heating:DX:SingleSpeed \"PTHP 1 SPD DX HTG COIL 8\" - Air volume flow rate per watt of rated total heating capacity is out of range error continues...\n   *************  **   ~~~   **   This error occurred 151 total times;\n   *************  **   ~~~   **   during Warmup 36 times;\n   *************  **   ~~~   **   during Sizing 0 times.\n   *************  **   ~~~   **   Max=27625381302008884.000000  Min=0.979261\n   *************\n   *************  ** Warning ** Coil:Heating:DX:SingleSpeed \"PTHP 1 SPD DX HTG COIL 23\" - Air volume flow rate per watt of rated total heating capacity is out of range error continues...\n   *************  **   ~~~   **   This error occurred 736 total times;\n   *************  **   ~~~   **   during Warmup 81 times;\n   *************  **   ~~~   **   during Sizing 0 times.\n   *************  **   ~~~   **   Max=1408391773186801.250000  Min=0.975751\n   *************\n   *************  ** Warning ** Coil:Heating:DX:SingleSpeed \"PTHP 1 SPD DX HTG COIL 16\" - Air volume flow rate per watt of rated total heating capacity is out of range error continues...\n   *************  **   ~~~   **   This error occurred 681 total times;\n   *************  **   ~~~   **   during Warmup 81 times;\n   *************  **   ~~~   **   during Sizing 0 times.\n   *************  **   ~~~   **   Max=12793304756342866.000000  Min=0.977162\n   *************\n   *************  ** Warning ** Coil:Heating:DX:SingleSpeed \"PTHP 1 SPD DX HTG COIL 5\" - Air volume flow rate per watt of rated total heating capacity is out of range error continues...\n   *************  **   ~~~   **   This error occurred 921 total times;\n   *************  **   ~~~   **   during Warmup 106 times;\n   *************  **   ~~~   **   during Sizing 0 times.\n   *************  **   ~~~   **   Max=12679837589407970.000000  Min=0.977156\n   *************\n   *************  ** Warning ** Coil:Heating:DX:SingleSpeed \"PTHP 1 SPD DX HTG COIL 10\" - Air volume flow rate per watt of rated total heating capacity is out of range error continues...\n   *************  **   ~~~   **   This error occurred 851 total times;\n   *************  **   ~~~   **   during Warmup 106 times;\n   *************  **   ~~~   **   during Sizing 0 times.\n   *************  **   ~~~   **   Max=12322318636901704.000000  Min=0.977116\n   *************\n   *************  ** Warning ** Coil:Heating:DX:SingleSpeed \"PTHP 1 SPD DX HTG COIL 20\" - Air volume flow rate per watt of rated total heating capacity is out of range error continues...\n   *************  **   ~~~   **   This error occurred 791 total times;\n   *************  **   ~~~   **   during Warmup 106 times;\n   *************  **   ~~~   **   during Sizing 0 times.\n   *************  **   ~~~   **   Max=12306396974159722.000000  Min=0.977121\n   *************\n   *************  ** Warning ** Coil:Heating:DX:SingleSpeed \"PTHP 1 SPD DX HTG COIL 15\" - Air volume flow rate per watt of rated total heating capacity is out of range error continues...\n   *************  **   ~~~   **   This error occurred 606 total times;\n   *************  **   ~~~   **   during Warmup 81 times;\n   *************  **   ~~~   **   during Sizing 0 times.\n   *************  **   ~~~   **   Max=1477770518270092.500000  Min=0.977694\n   *************\n   *************  ** Warning ** Coil:Heating:DX:SingleSpeed \"PTHP 1 SPD DX HTG COIL 9\" - Air volume flow rate per watt of rated total heating capacity is out of range error continues...\n   *************  **   ~~~   **   This error occurred 846 total times;\n   *************  **   ~~~   **   during Warmup 106 times;\n   *************  **   ~~~   **   during Sizing 0 times.\n   *************  **   ~~~   **   Max=12685932655637242.000000  Min=0.977162\n   *************\n   *************  ** Warning ** Coil:Heating:DX:SingleSpeed \"PTHP 1 SPD DX HTG COIL 26\" - Air volume flow rate per watt of rated total heating capacity is out of range error continues...\n   *************  **   ~~~   **   This error occurred 1731 total times;\n   *************  **   ~~~   **   during Warmup 151 times;\n   *************  **   ~~~   **   during Sizing 0 times.\n   *************  **   ~~~   **   Max=5397108310880696.000000  Min=0.976962\n   *************\n   *************  ** Warning ** Coil:Heating:DX:SingleSpeed \"PTHP 1 SPD DX HTG COIL 24\" - Air volume flow rate per watt of rated total heating capacity is out of range error continues...\n   *************  **   ~~~   **   This error occurred 751 total times;\n   *************  **   ~~~   **   during Warmup 81 times;\n   *************  **   ~~~   **   during Sizing 0 times.\n   *************  **   ~~~   **   Max=12788700284680586.000000  Min=0.977158\n   *************\n   *************  ** Warning ** Coil:Heating:DX:SingleSpeed \"PTHP 1 SPD DX HTG COIL 17\" - Air volume flow rate per watt of rated total heating capacity is out of range error continues...\n   *************  **   ~~~   **   This error occurred 996 total times;\n   *************  **   ~~~   **   during Warmup 101 times;\n   *************  **   ~~~   **   during Sizing 0 times.\n   *************  **   ~~~   **   Max=10064142300110726.000000  Min=0.977420\n   *************\n   *************  ** Warning ** Coil:Heating:DX:SingleSpeed \"PTHP 1 SPD DX HTG COIL 18\" - Air volume flow rate per watt of rated total heating capacity is out of range error continues...\n   *************  **   ~~~   **   This error occurred 951 total times;\n   *************  **   ~~~   **   during Warmup 101 times;\n   *************  **   ~~~   **   during Sizing 0 times.\n   *************  **   ~~~   **   Max=10071059468017426.000000  Min=0.977421\n   *************\n   *************  ** Warning ** Coil:Heating:DX:SingleSpeed \"PTHP 1 SPD DX HTG COIL 19\" - Air volume flow rate per watt of rated total heating capacity is out of range error continues...\n   *************  **   ~~~   **   This error occurred 551 total times;\n   *************  **   ~~~   **   during Warmup 81 times;\n   *************  **   ~~~   **   during Sizing 0 times.\n   *************  **   ~~~   **   Max=3015271869237564.500000  Min=0.977809\n   *************\n   *************  ** Warning ** Coil:Heating:DX:SingleSpeed \"PTHP 1 SPD DX HTG COIL 22\" - Air volume flow rate per watt of rated total heating capacity is out of range error continues...\n   *************  **   ~~~   **   This error occurred 671 total times;\n   *************  **   ~~~   **   during Warmup 81 times;\n   *************  **   ~~~   **   during Sizing 0 times.\n   *************  **   ~~~   **   Max=1406942247591318.750000  Min=0.977675\n   *************\n   *************  ** Warning ** Coil:Heating:DX:SingleSpeed \"PTHP 1 SPD DX HTG COIL 25\" - Air volume flow rate per watt of rated total heating capacity is out of range error continues...\n   *************  **   ~~~   **   This error occurred 651 total times;\n   *************  **   ~~~   **   during Warmup 81 times;\n   *************  **   ~~~   **   during Sizing 0 times.\n   *************  **   ~~~   **   Max=1477328253044830.250000  Min=0.977694\n   *************\n   *************  ** Warning ** Coil:Heating:DX:SingleSpeed \"PTHP 1 SPD DX HTG COIL 1\" - Air volume flow rate per watt of rated total heating capacity is out of range error continues...\n   *************  **   ~~~   **   This error occurred 786 total times;\n   *************  **   ~~~   **   during Warmup 81 times;\n   *************  **   ~~~   **   during Sizing 0 times.\n   *************  **   ~~~   **   Max=1457441667610812.750000  Min=0.975768\n   *************\n   *************  ** Warning ** Coil:Heating:DX:SingleSpeed \"PTHP 1 SPD DX HTG COIL 3\" - Air volume flow rate per watt of rated total heating capacity is out of range error continues...\n   *************  **   ~~~   **   This error occurred 711 total times;\n   *************  **   ~~~   **   during Warmup 81 times;\n   *************  **   ~~~   **   during Sizing 0 times.\n   *************  **   ~~~   **   Max=1457995051829665.250000  Min=0.975774\n   *************\n   *************  ** Warning ** Coil:Heating:DX:SingleSpeed \"PTHP 1 SPD DX HTG COIL 2\" - Air volume flow rate per watt of rated total heating capacity is out of range error continues...\n   *************  **   ~~~   **   This error occurred 996 total times;\n   *************  **   ~~~   **   during Warmup 106 times;\n   *************  **   ~~~   **   during Sizing 0 times.\n   *************  **   ~~~   **   Max=1201179826163279.250000  Min=0.975981\n   *************\n   *************  ** Warning ** Coil:Heating:DX:SingleSpeed \"PTHP 1 SPD DX HTG COIL 27\" - Air volume flow rate per watt of rated total heating capacity is out of range error continues...\n   *************  **   ~~~   **   This error occurred 821 total times;\n   *************  **   ~~~   **   during Warmup 91 times;\n   *************  **   ~~~   **   during Sizing 0 times.\n   *************  **   ~~~   **   Max=1164027534027501.250000  Min=0.977326\n   *************\n   *************  ** Warning ** Coil:Heating:DX:SingleSpeed \"PTHP 1 SPD DX HTG COIL 14\" - Air volume flow rate per watt of rated total heating capacity is out of range error continues...\n   *************  **   ~~~   **   This error occurred 146 total times;\n   *************  **   ~~~   **   during Warmup 31 times;\n   *************  **   ~~~   **   during Sizing 0 times.\n   *************  **   ~~~   **   Max=2420146727520456.500000  Min=0.979153\n   *************\n   *************  ** Warning ** Coil:Heating:DX:SingleSpeed \"PTHP 1 SPD DX HTG COIL 11\" - Air volume flow rate per watt of rated total heating capacity is out of range error continues...\n   *************  **   ~~~   **   This error occurred 761 total times;\n   *************  **   ~~~   **   during Warmup 76 times;\n   *************  **   ~~~   **   during Sizing 0 times.\n   *************  **   ~~~   **   Max=1273508611716170.500000  Min=0.976181\n   *************\n   *************  ** Warning ** Coil:Heating:DX:SingleSpeed \"PTHP 1 SPD DX HTG COIL 6\" - Air volume flow rate per watt of rated total heating capacity is out of range error continues...\n   *************  **   ~~~   **   This error occurred 771 total times;\n   *************  **   ~~~   **   during Warmup 91 times;\n   *************  **   ~~~   **   during Sizing 0 times.\n   *************  **   ~~~   **   Max=1164314417205456.750000  Min=0.977325\n   *************\n   *************  ** Warning ** Coil:Heating:DX:SingleSpeed \"PTHP 1 SPD DX HTG COIL 12\" - Air volume flow rate per watt of rated total heating capacity is out of range error continues...\n   *************  **   ~~~   **   This error occurred 871 total times;\n   *************  **   ~~~   **   during Warmup 91 times;\n   *************  **   ~~~   **   during Sizing 0 times.\n   *************  **   ~~~   **   Max=1122980573835170.875000  Min=0.977295\n   *************\n   *************  ** Warning ** Coil:Heating:DX:SingleSpeed \"PTHP 1 SPD DX HTG COIL 7\" - Air volume flow rate per watt of rated total heating capacity is out of range error continues...\n   *************  **   ~~~   **   This error occurred 916 total times;\n   *************  **   ~~~   **   during Warmup 91 times;\n   *************  **   ~~~   **   during Sizing 0 times.\n   *************  **   ~~~   **   Max=1156625489972032.750000  Min=0.977328\n   *************\n   *************  ** Warning ** Coil:Heating:DX:SingleSpeed \"PTHP 1 SPD DX HTG COIL 13\" - Air volume flow rate per watt of rated total heating capacity is out of range error continues...\n   *************  **   ~~~   **   This error occurred 1086 total times;\n   *************  **   ~~~   **   during Warmup 106 times;\n   *************  **   ~~~   **   during Sizing 0 times.\n   *************  **   ~~~   **   Max=1200614185446162.250000  Min=0.975976\n   *************\n   *************  ** Warning ** \"ESTAR MFHR WHOLE BUILDING WATER USE EQUIPMENT\" - Target water temperature should be less than or equal to the hot water temperature error continues...\n   *************  **   ~~~   **   This error occurred 489295 total times;\n   *************  **   ~~~   **   during Warmup 0 times;\n   *************  **   ~~~   **   during Sizing 0 times.\n   *************  **   ~~~   **   Max=4.992970  Min=0.144617\n   *************\n   *************  ** Warning ** CalcDoe2DXCoil: Coil:Cooling:DX:SingleSpeed=\"PTHP 1 SPD DX CLG COIL 8\" - Low condenser dry-bulb temperature error continues...\n   *************  **   ~~~   **   This error occurred 21 total times;\n   *************  **   ~~~   **   during Warmup 0 times;\n   *************  **   ~~~   **   during Sizing 0 times.\n   *************  **   ~~~   **   Max=-0.600000 [C]  Min=-4.150000 [C]\n   *************\n   *************  ** Warning ** CalcDoe2DXCoil: Coil:Cooling:DX:SingleSpeed=\"PTHP 1 SPD DX CLG COIL 19\" - Low condenser dry-bulb temperature error continues...\n   *************  **   ~~~   **   This error occurred 5 total times;\n   *************  **   ~~~   **   during Warmup 0 times;\n   *************  **   ~~~   **   during Sizing 0 times.\n   *************  **   ~~~   **   Max=-0.783333 [C]  Min=-1.150000 [C]\n   *************\n   *************\n   ************* ===== Final Error Summary =====\n   ************* The following error categories occurred.  Consider correcting or noting.\n   ************* Nominally Unused Constructions\n   ************* ..The nominally unused constructions warning is provided to alert you to potential conditions that can cause\n   ************* ..extra time during simulation. Each construction is calculated by the algorithm indicated in the HeatBalanceAlgorithm\n   ************* ..object. You may remove the constructions indicated (when you use the DisplayExtraWarnings option).\n   *************\n   ************* EnergyPlus Warmup Error Summary. During Warmup: 0 Warning; 0 Severe Errors.\n   ************* EnergyPlus Sizing Error Summary. During Sizing: 76 Warning; 0 Severe Errors.\n   ************* EnergyPlus Completed Successfully-- 512047 Warning; 0 Severe Errors; Elapsed Time=00hr 02min 34.95sec\n\u0000\u0000\u0000\u0000\u0000\u0000\u0000\u0000\u0000\u0000\u0000\u0000\u0000\u0000\u0000\u0000\u0000\u0000\u0000\u0000\u0000\u0000\u0000\u0000\u0000\u0000\u0000\u0000\u0000\u0000\u0000\u0000\u0000\u0000\u0000\u0000\u0000\u0000\u0000\u0000\u0000\u0000\u0000\u0000\u0000\u0000\u0000\u0000\u0000\u0000\u0000\u0000\u0000\u0000\u0000\u0000\u0000\u0000\u0000\u0000\u0000\u0000\u0000\u0000\u0000\u0000\u0000\u0000\u0000\u0000\u0000\u0000\u0000\u0000\u0000\u0000\u0000\u0000\u0000\u0000\u0000\u0000\u0000\u0000\u0000\u0000\u0000\u0000\u0000\u0000\u0000\u0000\u0000\u0000\u0000\u0000\u0000\u0000\u0000\u0000\u0000\u0000\u0000\u0000\u0000\u0000\u0000\u0000\u0000\u0000\u0000\u0000\u0000\u0000\u0000\u0000\u0000\u0000\u0000\u0000\u0000\u0000\u0000\u0000\u0000\u0000\u0000\u0000\u0000\u0000\u0000\u0000\u0000\u0000\u0000\u0000\u0000\u0000\u0000\u0000\u0000\u0000\u0000\u0000\u0000\u0000\u0000\u0000\u0000\u0000\u0000\u0000\u0000\u0000\u0000\u0000\u0000\u0000\u0000\u0000\u0000\u0000\u0000\u0000\u0000\u0000\u0000\u0000\u0000\u0000\u0000\u0000\u0000\u0000\u0000\u0000\u0000\u0000\u0000\u0000\u0000\u0000\u0000\u0000\u0000\u0000\u0000\u0000\u0000\u0000\u0000\u0000\u0000\u0000\u0000\u0000\u0000\u0000\u0000\u0000\u0000\u0000\u0000\u0000\u0000\u0000\u0000\u0000\u0000\u0000\u0000\u0000\u0000\u0000\u0000\u0000\u0000\u0000\u0000\u0000\u0000\u0000\u0000\u0000\u0000\u0000\u0000\u0000\u0000\u0000\u0000\u0000\u0000\u0000\u0000\u0000\u0000\u0000\u0000\u0000\u0000\u0000\u0000\u0000\u0000\u0000\u0000\u0000\u0000\u0000\u0000\u0000\u0000\u0000\u0000\u0000\u0000\u0000\u0000\u0000\u0000\u0000\u0000\u0000\u0000\u0000\u0000\u0000\u0000\u0000\u0000\u0000\u0000\u0000\u0000\u0000\u0000\u0000\u0000\u0000\u0000\u0000\u0000\u0000\u0000\u0000\u0000\u0000\u0000\u0000\u0000\u0000\u0000\u0000\u0000\u0000\u0000\u0000\u0000\u0000\u0000\u0000\u0000\u0000\u0000\u0000\u0000\u0000\u0000\u0000\u0000\u0000\u0000\u0000\u0000\u0000\u0000\u0000\u0000\u0000\u0000\u0000\u0000\u0000\u0000\u0000\u0000\u0000\u0000\u0000\u0000\u0000\u0000\u0000\u0000\u0000\u0000\u0000\u0000\u0000\u0000\u0000\u0000\u0000\u0000\u0000\u0000\u0000\u0000\u0000\u0000\u0000\u0000\u0000\u0000\u0000\u0000\u0000\u0000\u0000\u0000\u0000\u0000\u0000\u0000\u0000\u0000\u0000\u0000\u0000\u0000\u0000\u0000\u0000\u0000\u0000\u0000\u0000\u0000\u0000\u0000\u0000\u0000\u0000\u0000\u0000\u0000\u0000\u0000\u0000\u0000\u0000\u0000\u0000\u0000\u0000\u0000\u0000\u0000\u0000\u0000\u0000\u0000\u0000\u0000\u0000\u0000\u0000\u0000\u0000\u0000\u0000\u0000\u0000\u0000\u0000\u0000\u0000\u0000\u0000\u0000\u0000\u0000\u0000\u0000\u0000\u0000\u0000\u0000\u0000\u0000\u0000\u0000\u0000\u0000\u0000\u0000\u0000\u0000\u0000\u0000\u0000\u0000\u0000\u0000\u0000\u0000\u0000\u0000\u0000\u0000\u0000\u0000\u0000\u0000\u0000\u0000\u0000\u0000\u0000\u0000\u0000\u0000\u0000\u0000\u0000\u0000\u0000\u0000\u0000\u0000\u0000\u0000\u0000\u0000\u0000\u0000\u0000\u0000\u0000\u0000\u0000\u0000\u0000\u0000\u0000\u0000\u0000\u0000\u0000\u0000\u0000\u0000\u0000\u0000\u0000\u0000\u0000\u0000\u0000\u0000\u0000\u0000\u0000\u0000\u0000\u0000\u0000\u0000\u0000\u0000\u0000\u0000\u0000\u0000\u0000\u0000\u0000\u0000\u0000\u0000\u0000\u0000\u0000\u0000\u0000\u0
[...]
                  "value" : 170.68800000000039
               },
               {
                  "name" : "surface_111_c_tbd",
                  "units" : "m^2",
                  "value" : 213.3600000000003
               },
               {
                  "name" : "surface_114_c_tbd",
                  "units" : "m^2",
                  "value" : 170.68800000000039
               },
               {
                  "name" : "surface_115_c_tbd",
                  "units" : "m^2",
                  "value" : 213.36000000000035
               },
               {
                  "name" : "surface_116_c_tbd",
                  "units" : "m^2",
                  "value" : 170.68800000000039
               },
               {
                  "name" : "surface_117_c_tbd",
                  "units" : "m^2",
                  "value" : 213.3600000000003
               },
               {
                  "name" : "surface_120_c_tbd",
                  "units" : "m^2",
                  "value" : 181.35600000000025
               },
               {
                  "name" : "surface_122_c_tbd",
                  "units" : "m^2",
                  "value" : 181.35600000000025
               },
               {
                  "name" : "surface_123_c_tbd",
                  "units" : "m^2",
                  "value" : 213.3600000000003
               },
               {
                  "name" : "surface_126_c_tbd",
                  "units" : "m^2",
                  "value" : 181.35600000000025
               },
               {
                  "name" : "surface_128_c_tbd",
                  "units" : "m^2",
                  "value" : 181.35600000000025
               },
               {
                  "name" : "surface_129_c_tbd",
                  "units" : "m^2",
                  "value" : 213.3600000000003
               },
               {
                  "name" : "surface_132_c_tbd",
                  "units" : "m^2",
                  "value" : 2.2402800000000052
               },
               {
                  "name" : "surface_133_c_tbd",
                  "units" : "m^2",
                  "value" : 14.828520000000006
               },
               {
                  "name" : "surface_134_c_tbd",
                  "units" : "m^2",
                  "value" : 21.336000000000034
               },
               {
                  "name" : "surface_135_c_tbd",
                  "units" : "m^2",
                  "value" : 17.068800000000039
               },
               {
                  "name" : "surface_136_c_tbd",
                  "units" : "m^2",
                  "value" : 21.33600000000003
               },
               {
                  "name" : "surface_137_c_tbd",
                  "units" : "m^2",
                  "value" : 80.0
               },
               {
                  "name" : "surface_139_c_tbd",
                  "units" : "m^2",
                  "value" : 4.2671999999999937
               },
               {
                  "name" : "surface_14_c_tbd",
                  "units" : "m^2",
                  "value" : 4.2671999999999937
               },
               {
                  "name" : "surface_140_c_tbd",
                  "units" : "m^2",
                  "value" : 18.135600000000025
               },
               {
                  "name" : "surface_141_c_tbd",
                  "units" : "m^2",
                  "value" : 18.135599999999979
               },
               {
                  "name" : "surface_142_c_tbd",
                  "units" : "m^2",
                  "value" : 17.068800000000039
               },
               {
                  "name" : "surface_143_c_tbd",
                  "units" : "m^2",
                  "value" : 17.068800000000035
               },
               {
                  "name" : "surface_144_c_tbd",
                  "units" : "m^2",
                  "value" : 2.1336000000000039
               },
               {
                  "name" : "surface_145_c_tbd",
                  "units" : "m^2",
                  "value" : 2.1336000000000035
               },
               {
                  "name" : "surface_146_c_tbd",
                  "units" : "m^2",
                  "value" : 17.068800000000035
               },
               {
                  "name" : "surface_147_c_tbd",
                  "units" : "m^2",
                  "value" : 17.068800000000039
               },
               {
                  "name" : "surface_148_c_tbd",
                  "units" : "m^2",
                  "value" : 18.135599999999979
               },
               {
                  "name" : "surface_149_c_tbd",
                  "units" : "m^2",
                  "value" : 18.135600000000025
               },
               {
                  "name" : "surface_150_c_tbd",
                  "units" : "m^2",
                  "value" : 66.0
               },
               {
                  "name" : "surface_152_c_tbd",
                  "units" : "m^2",
                  "value" : 17.068800000000039
               },
               {
                  "name" : "surface_153_c_tbd",
                  "units" : "m^2",
                  "value" : 21.336000000000034
               },
               {
                  "name" : "surface_154_c_tbd",
                  "units" : "m^2",
                  "value" : 17.068800000000024
               },
               {
                  "name" : "surface_155_c_tbd",
                  "units" : "m^2",
                  "value" : 21.33600000000003
               },
               {
                  "name" : "surface_156_c_tbd",
                  "units" : "m^2",
                  "value" : 79.999999999999972
               },
               {
                  "name" : "surface_158_c_tbd",
                  "units" : "m^2",
                  "value" : 17.068800000000039
               },
               {
                  "name" : "surface_159_c_tbd",
                  "units" : "m^2",
                  "value" : 21.336000000000034
               },
               {
                  "name" : "surface_160_c_tbd",
                  "units" : "m^2",
                  "value" : 17.068800000000039
               },
               {
                  "name" : "surface_161_c_tbd",
                  "units" : "m^2",
                  "value" : 21.33600000000003
               },
               {
                  "name" : "surface_162_c_tbd",
                  "units" : "m^2",
                  "value" : 80.0
               },
               {
                  "name" : "surface_164_c_tbd",
                  "units" : "m^2",
                  "value" : 18.135600000000025
               },
               {
                  "name" : "surface_166_c_tbd",
                  "units" : "m^2",
                  "value" : 18.135600000000025
               },
               {
                  "name" : "surface_167_c_tbd",
                  "units" : "m^2",
                  "value" : 21.33600000000003
               },
               {
                  "name" : "surface_168_c_tbd",
                  "units" : "m^2",
                  "value" : 85.000000000000114
               },
               {
                  "name" : "surface_170_c_tbd",
                  "units" : "m^2",
                  "value" : 17.068800000000039
               },
               {
                  "name" : "surface_171_c_tbd",
                  "units" : "m^2",
                  "value" : 21.336000000000034
               },
               {
                  "name" : "surface_172_c_tbd",
                  "units" : "m^2",
                  "value" : 17.068800000000039
               },
               {
                  "name" : "surface_173_c_tbd",
                  "units" : "m^2",
                  "value" : 21.33600000000003
               },
               {
                  "name" : "surface_174_c_tbd",
                  "units" : "m^2",
                  "value" : 80.0
               },
               {
                  "name" : "surface_176_c_tbd",
                  "units" : "m^2",
                  "value" : 18.135600000000004
               },
               {
                  "name" : "surface_177_c_tbd",
                  "units" : "m^2",
                  "value" : 21.336000000000034
               },
               {
                  "name" : "surface_178_c_tbd",
                  "units" : "m^2",
                  "value" : 18.1356
               },
               {
                  "name" : "surface_179_c_tbd",
                  "units" : "m^2",
                  "value" : 21.33600000000003
               },
               {
                  "name" : "surface_180_c_tbd",
                  "units" : "m^2",
                  "value" : 85.0
               },
               {
                  "name" : "surface_182_c_tbd",
                  "units" : "m^2",
                  "value" : 18.135600000000004
               },
               {
                  "name" : "surface_183_c_tbd",
                  "units" : "m^2",
                  "value" : 21.336000000000034
               },
               {
                  "name" : "surface_184_c_tbd",
                  "units" : "m^2",
                  "value" : 18.1356
               },
               {
                  "name" : "surface_185_c_tbd",
                  "units" : "m^2",
                  "value" : 21.33600000000003
               },
               {
                  "name" : "surface_186_c_tbd",
                  "units" : "m^2",
                  "value" : 85.0
               },
               {
                  "name" : "surface_188_c_tbd",
                  "units" : "m^2",
                  "value" : 18.135600000000025
               },
               {
                  "name" : "surface_19_c_tbd",
                  "units" : "m^2",
                  "value" : 2.1336000000000039
               },
               {
                  "name" : "surface_190_c_tbd",
                  "units" : "m^2",
                  "value" : 18.135600000000025
               },
               {
                  "name" : "surface_191_c_tbd",
                  "units" : "m^2",
                  "value" : 21.33600000000003
               },
               {
                  "name" : "surface_192_c_tbd",
                  "units" : "m^2",
                  "value" : 85.000000000000114
               },
               {
                  "name" : "surface_2_c_tbd",
                  "units" : "m^2",
                  "value" : 46.939200000000085
               },
               {
                  "name" : "surface_20_c_tbd",
                  "units" : "m^2",
                  "value" : 2.1336000000000035
               },
               {
                  "name" : "surface_27_c_tbd",
                  "units" : "m^2",
                  "value" : 17.068800000000039
               },
               {
                  "name" : "surface_28_c_tbd",
                  "units" : "m^2",
                  "value" : 21.336000000000034
               },
               {
                  "name" : "surface_3_c_tbd",
                  "units" : "m^2",
                  "value" : 70.408799999999985
               },
               {
                  "name" : "surface_33_c_tbd",
                  "units" : "m^2",
                  "value" : 2.2402800000000052
               },
               {
                  "name" : "surface_34_c_tbd",
                  "units" : "m^2",
                  "value" : 14.828520000000006
               },
               {
                  "name" : "surface_38_c_tbd",
                  "units" : "m^2",
                  "value" : 80.0
               },
               {
                  "name" : "surface_40_c_tbd",
                  "units" : "m^2",
                  "value" : 17.068800000000039
               },
               {
                  "name" : "surface_46_c_tbd",
                  "units" : "m^2",
                  "value" : 18.135600000000004
               },
               {
                  "name" : "surface_5_c_tbd",
                  "units" : "m^2",
                  "value" : 70.408799999999985
               },
               {
                  "name" : "surface_52_c_tbd",
                  "units" : "m^2",
                  "value" : 18.135600000000004
               },
               {
                  "name" : "surface_58_c_tbd",
                  "units" : "m^2",
                  "value" : 18.135600000000025
               },
               {
                  "name" : "surface_59_c_tbd",
                  "units" : "m^2",
                  "value" : 21.336000000000034
               },
               {
                  "name" : "surface_6_c_tbd",
                  "units" : "m^2",
                  "value" : 726.0
               },
               {
                  "name" : "surface_66_c_tbd",
                  "units" : "m^2",
                  "value" : 18.135600000000025
               },
               {
                  "name" : "surface_71_c_tbd",
                  "units" : "m^2",
                  "value" : 181.35600000000025
               },
               {
                  "name" : "surface_72_c_tbd",
                  "units" : "m^2",
                  "value" : 181.3559999999998
               },
               {
                  "name" : "surface_73_c_tbd",
                  "units" : "m^2",
                  "value" : 170.68800000000039
               },
               {
                  "name" : "surface_74_c_tbd",
                  "units" : "m^2",
                  "value" : 170.68800000000036
               },
               {
                  "name" : "surface_75_c_tbd",
                  "units" : "m^2",
                  "value" : 21.336000000000041
               },
               {
                  "name" : "surface_76_c_tbd",
                  "units" : "m^2",
                  "value" : 21.336000000000034
               },
               {
                  "name" : "surface_77_c_tbd",
                  "units" : "m^2",
                  "value" : 170.68800000000036
               },
               {
                  "name" : "surface_78_c_tbd",
                  "units" : "m^2",
                  "value" : 170.68800000000039
               },
               {
                  "name" : "surface_79_c_tbd",
                  "units" : "m^2",
                  "value" : 181.3559999999998
               },
               {
                  "name" : "surface_80_c_tbd",
                  "units" : "m^2",
                  "value" : 181.35600000000025
               },
               {
                  "name" : "surface_83_c_tbd",
                  "units" : "m^2",
                  "value" : 170.68800000000039
               },
               {
                  "name" : "surface_84_c_tbd",
                  "units" : "m^2",
                  "value" : 213.36000000000035
               },
               {
                  "name" : "surface_85_c_tbd",
                  "units" : "m^2",
                  "value" : 170.68800000000039
               },
               {
                  "name" : "surface_86_c_tbd",
                  "units" : "m^2",
                  "value" : 213.3600000000003
               },
               {
                  "name" : "surface_89_c_tbd",
                  "units" : "m^2",
                  "value" : 181.35600000000005
               },
               {
                  "name" : "surface_9_c_tbd",
                  "units" : "m^2",
                  "value" : 21.336000000000034
               },
               {
                  "name" : "surface_90_c_tbd",
                  "units" : "m^2",
                  "value" : 213.36000000000035
               },
               {
                  "name" : "surface_91_c_tbd",
                  "units" : "m^2",
                  "value" : 181.35599999999999
               },
               {
                  "name" : "surface_92_c_tbd",
                  "units" : "m^2",
                  "value" : 213.3600000000003
               },
               {
                  "name" : "surface_95_c_tbd",
                  "units" : "m^2",
                  "value" : 170.68800000000039
               },
               {
                  "name" : "surface_96_c_tbd",
                  "units" : "m^2",
                  "value" : 213.36000000000035
               },
               {
                  "name" : "surface_97_c_tbd",
                  "units" : "m^2",
                  "value" : 170.68800000000024
               },
               {
                  "name" : "surface_98_c_tbd",
                  "units" : "m^2",
                  "value" : 213.3600000000003
               },
               {
                  "name" : "customized_fenestration_u_2_38",
                  "units" : "m^2",
                  "value" : 3824.0207999999875
               },
               {
                  "name" : "gross_window_wall_ratio",
                  "units" : "%",
                  "value" : 30.0
               },
               {
                  "name" : "gross_window_wall_ratio_conditioned",
                  "units" : "%",
                  "value" : 30.0
               },
               {
                  "name" : "skylight_roof_ratio",
                  "units" : "%",
                  "value" : 0.0
               },
               {
                  "name" : "space_type_murb_lobby",
                  "units" : "m^2",
                  "value" : 1584.0
               },
               {
                  "name" : "space_type_murb_small",
                  "units" : "m^2",
                  "value" : 7920.0000000000018
               },
               {
                  "name" : "estar_mfhr_whole_building_water_use_equipment",
                  "units" : "m^3/h",
                  "value" : 1.8904459446512134
               },
               {
                  "name" : "zone_max_hours_over_70_rh",
                  "units" : "hr",
                  "value" : 0
               },
               {
                  "name" : "zone_max_hours_over_55_rh",
                  "units" : "hr",
                  "value" : 126.0
               },
               {
                  "name" : "num_zones_x_hours_over_70",
                  "units" : "zones",
                  "value" : 0
               },
               {
                  "name" : "num_zones_x_hours_over_55",
                  "units" : "zones",
                  "value" : 19
               },
               {
                  "name" : "inflation_approach",
                  "value" : "Constant Dollar"
               },
               {
                  "name" : "analysis_length",
                  "units" : "yrs",
                  "value" : 25
               },
               {
                  "name" : "number_of_measures_with_warnings",
                  "value" : 2
               },
               {
                  "name" : "number_warnings",
                  "value" : 5
               },
               {
                  "name" : "annual_peak_electric_demand",
                  "units" : "kW",
                  "value" : 687.46586000000002
               },
               {
                  "name" : "first_year_capital_cost",
                  "units" : "$",
                  "value" : 0.0
               },
               {
                  "name" : "annual_utility_cost",
                  "units" : "$",
                  "value" : 0.0
               },
               {
                  "name" : "total_lifecycle_cost",
                  "units" : "$",
                  "value" : 0.0
               }
            ],
            "step_warnings" : []
         }
      }
   ],
   "updated_at" : "20240717T114829Z",
   "weather_file" : "CAN_PQ_Montreal.Intl.AP.716270_CWEC.epw"
}