Program Version,EnergyPlus, Version 23.2.0-7636e6b3e9, YMD=2024.07.17 06:55
! <Version>, Version ID
 Version, 23.2
! <Timesteps per Hour>, #TimeSteps, Minutes per TimeStep {minutes}
 Timesteps per Hour,  6, 10
! <System Convergence Limits>, Minimum System TimeStep {minutes}, Max HVAC Iterations, Minimum Plant Iterations, Maximum Plant Iterations
 System Convergence Limits, 1, 20, 2, 8
! <Simulation Control>, Do Zone Sizing, Do System Sizing, Do Plant Sizing, Do Design Days, Do Weather Simulation, Do HVAC Sizing Simulation
 Simulation Control, Yes, Yes, Yes, Yes, Yes, Yes
! <Performance Precision Tradeoffs>, Use Coil Direct Simulation, Zone Radiant Exchange Algorithm, Override Mode, Number of Timestep In Hour, Force Euler Method, Minimum Number of Warmup Days, Force Suppress All Begin Environment Resets, Minimum System Timestep, MaxZoneTempDiff, MaxAllowedDelTemp
 Performance Precision Tradeoffs, No, ScriptF, Normal, 6, No, 1, No, 1.0, 0.300, 2.0000E-003
! <Output Reporting Tolerances>, Tolerance for Time Heating Setpoint Not Met, Tolerance for Zone Cooling Setpoint Not Met Time
 Output Reporting Tolerances, 0.200, 0.200, 
! <Site:GroundTemperature:BuildingSurface>,Jan{C},Feb{C},Mar{C},Apr{C},May{C},Jun{C},Jul{C},Aug{C},Sep{C},Oct{C},Nov{C},Dec{C}
 Site:GroundTemperature:BuildingSurface,  18.00,  18.00,  18.00,  18.00,  18.00,  18.00,  18.00,  18.00,  18.00,  18.00,  18.00,  18.00
! <Site:GroundTemperature:FCfactorMethod>,Jan{C},Feb{C},Mar{C},Apr{C},May{C},Jun{C},Jul{C},Aug{C},Sep{C},Oct{C},Nov{C},Dec{C}
 Site:GroundTemperature:FCfactorMethod,  -1.50,  -6.19,  -7.46,  -6.35,  -0.03,   7.05,  13.71,  18.53,  19.94,  17.67,  12.21,   5.33
! <Site:GroundTemperature:Shallow>,Jan{C},Feb{C},Mar{C},Apr{C},May{C},Jun{C},Jul{C},Aug{C},Sep{C},Oct{C},Nov{C},Dec{C}
 Site:GroundTemperature:Shallow,  13.00,  13.00,  13.00,  13.00,  13.00,  13.00,  13.00,  13.00,  13.00,  13.00,  13.00,  13.00
! <Site:GroundTemperature:Deep>,Jan{C},Feb{C},Mar{C},Apr{C},May{C},Jun{C},Jul{C},Aug{C},Sep{C},Oct{C},Nov{C},Dec{C}
 Site:GroundTemperature:Deep,  16.00,  16.00,  16.00,  16.00,  16.00,  16.00,  16.00,  16.00,  16.00,  16.00,  16.00,  16.00
! <Site:GroundReflectance>,Jan{dimensionless},Feb{dimensionless},Mar{dimensionless},Apr{dimensionless},May{dimensionless},Jun{dimensionless},Jul{dimensionless},Aug{dimensionless},Sep{dimensionless},Oct{dimensionless},Nov{dimensionless},Dec{dimensionless}
 Site:GroundReflectance,  0.20,  0.20,  0.20,  0.20,  0.20,  0.20,  0.20,  0.20,  0.20,  0.20,  0.20,  0.20
! <Site:GroundReflectance:SnowModifier>, Normal, Daylighting {dimensionless}
 Site:GroundReflectance:SnowModifier,   1.000,   1.000
! <Site:GroundReflectance:Snow>,Jan{dimensionless},Feb{dimensionless},Mar{dimensionless},Apr{dimensionless},May{dimensionless},Jun{dimensionless},Jul{dimensionless},Aug{dimensionless},Sep{dimensionless},Oct{dimensionless},Nov{dimensionless},Dec{dimensionless}
 Site:GroundReflectance:Snow,  0.20,  0.20,  0.20,  0.20,  0.20,  0.20,  0.20,  0.20,  0.20,  0.20,  0.20,  0.20
! <Site:GroundReflectance:Snow:Daylighting>,Jan{dimensionless},Feb{dimensionless},Mar{dimensionless},Apr{dimensionless},May{dimensionless},Jun{dimensionless},Jul{dimensionless},Aug{dimensionless},Sep{dimensionless},Oct{dimensionless},Nov{dimensionless},Dec{dimensionless}
 Site:GroundReflectance:Snow:Daylighting,  0.20,  0.20,  0.20,  0.20,  0.20,  0.20,  0.20,  0.20,  0.20,  0.20,  0.20,  0.20
! <Environment:Weather Station>,Wind Sensor Height Above Ground {m},Wind Speed Profile Exponent {},Wind Speed Profile Boundary Layer Thickness {m},Air Temperature Sensor Height Above Ground {m},Wind Speed Modifier Coefficient-Internal,Temperature Modifier Coefficient-Internal
Environment:Weather Station,10.000,0.140,270.000,1.500,1.586,9.750E-003
! <Site:Location>, Location Name, Latitude {N+/S- Deg}, Longitude {E+/W- Deg},  Time Zone Number {GMT+/-}, Elevation {m},  Standard Pressure at Elevation {Pa}, Standard RhoAir at Elevation
Site:Location,Montreal Int'l PQ CAN WYEC2-B-94792 WMO#=716270,45.47,-73.75,-5.00,36.00,100893,1.1992
! <Site Water Mains Temperature Information>,Calculation Method{},Water Mains Temperature Schedule Name{},Annual Average Outdoor Air Temperature{C},Maximum Difference In Monthly Average Outdoor Air Temperatures{deltaC},Fixed Default Water Mains Temperature{C}
Site Water Mains Temperature Information,FixedDefault,NA,NA,NA,10.0
! <Building Information>, Building Name,North Axis {deg},Terrain,  Loads Convergence Tolerance Value,Temperature Convergence Tolerance Value,  Solar Distribution,Maximum Number of Warmup Days,Minimum Number of Warmup Days
 Building Information,Building 1,0.000,Suburbs,4.00000E-002,0.40000,FullExterior,25,1
! <Inside Convection Algorithm>, Algorithm {Simple | TARP | CeilingDiffuser | AdaptiveConvectionAlgorithm}
Inside Convection Algorithm,TARP
! <Outside Convection Algorithm>, Algorithm {SimpleCombined | TARP | MoWitt | DOE-2 | AdaptiveConvectionAlgorithm}
Outside Convection Algorithm,DOE-2
! <Sky Radiance Distribution>, Value {Anisotropic}
Sky Radiance Distribution,Anisotropic
! <Zone Air Solution Algorithm>, Algorithm {ThirdOrderBackwardDifference | AnalyticalSolution | EulerMethod}, Space Heat Balance Sizing, Space Heat Balance Simulation
 Zone Air Solution Algorithm, ThirdOrderBackwardDifference, No, No
! <Zone Air Carbon Dioxide Balance Simulation>, Simulation {Yes/No}, Carbon Dioxide Concentration
 Zone Air Carbon Dioxide Balance Simulation, No,N/A
! <Zone Air Generic Contaminant Balance Simulation>, Simulation {Yes/No}, Generic Contaminant Concentration
 Zone Air Generic Contaminant Balance Simulation, No,N/A
! <Zone Air Mass Flow Balance Simulation>, Enforce Mass Balance, Adjust Zone Mixing and Return {AdjustMixingOnly | AdjustReturnOnly | AdjustMixingThenReturn | AdjustReturnThenMixing | None}, Adjust Zone Infiltration {AddInfiltration | AdjustInfiltration | None}, Infiltration Zones {MixingSourceZonesOnly | AllZones}
 Zone Air Mass Flow Balance Simulation, No,N/A,N/A,N/A
! <HVACSystemRootFindingAlgorithm>, Value {RegulaFalsi | Bisection | BisectionThenRegulaFalsi | RegulaFalsiThenBisection}
 HVACSystemRootFindingAlgorithm, RegulaFalsi
! <Environment:Site Atmospheric Variation>,Wind Speed Profile Exponent {},Wind Speed Profile Boundary Layer Thickness {m},Air Temperature Gradient Coefficient {K/m}
Environment:Site Atmospheric Variation,0.220,370.000,6.500000E-003
! <Surface Geometry>,Starting Corner,Vertex Input Direction,Coordinate System,Daylight Reference Point Coordinate System,Rectangular (Simple) Surface Coordinate System
 Surface Geometry,UpperLeftCorner,Counterclockwise,RelativeCoordinateSystem,RelativeCoordinateSystem,RelativeToZoneOrigin
! <Surface Heat Transfer Algorithm>, Value {CTF - ConductionTransferFunction | EMPD - MoisturePenetrationDepthConductionTransferFunction | CondFD - ConductionFiniteDifference | HAMT - CombinedHeatAndMoistureFiniteElement} - Description,Inside Surface Max Temperature Limit{C}, Surface Convection Coefficient Lower Limit {W/m2-K}, Surface Convection Coefficient Upper Limit {W/m2-K}
Surface Heat Transfer Algorithm, CTF - ConductionTransferFunction,200,0.10,1000.0
! <Shading Summary>, Number of Fixed Detached Shades, Number of Building Detached Shades, Number of Attached Shades
 Shading Summary,0,12,0
! <Zone Summary>, Number of Zones, Number of Zone Surfaces, Number of SubSurfaces
 Zone Summary,44,578,244
! <Zone Information>,Zone Name,North Axis {deg},Origin X-Coordinate {m},Origin Y-Coordinate {m},Origin Z-Coordinate {m},Centroid X-Coordinate {m},Centroid Y-Coordinate {m},Centroid Z-Coordinate {m},Type,Zone Multiplier,Zone List Multiplier,Minimum X {m},Maximum X {m},Minimum Y {m},Maximum Y {m},Minimum Z {m},Maximum Z {m},Ceiling Height {m},Volume {m3},Zone Inside Convection Algorithm {Simple-Detailed-CeilingDiffuser-TrombeWall},Zone Outside Convection Algorithm {Simple-Detailed-Tarp-MoWitt-DOE-2-BLAST}, Floor Area {m2},Exterior Gross Wall Area {m2},Exterior Net Wall Area {m2},Exterior Window Area {m2}, Number of Surfaces, Number of SubSurfaces, Number of Shading SubSurfaces,  Part of Total Building Area
 Zone Information, THERMAL ZONE 1,0.0,-6.86,57.68,0.00,-5.38,52.86,1.52,1,1,1,-10.34,-0.44,48.03,57.68,0.00,3.05,3.05,153.85,TARP,DOE-2,50.48,86.77,60.74,26.03,6,4,0,Yes
 Zone Information, THERMAL ZONE 10,0.0,4.89,59.10,39.14,-0.85,57.80,40.67,1,1,1,-6.86,4.89,52.66,63.93,39.14,42.19,3.05,212.01,TARP,DOE-2,69.56,102.51,71.76,30.75,7,5,0,Yes
 Zone Information, THERMAL ZONE 11,0.0,-2.66,82.39,0.00,2.13,83.33,1.52,1,1,1,-2.66,6.92,78.72,87.99,0.00,3.05,3.05,143.31,TARP,DOE-2,47.02,83.74,58.62,25.12,6,4,0,Yes
 Zone Information, THERMAL ZONE 12,0.0,-3.06,63.93,0.00,5.10,63.72,1.52,1,1,1,-3.06,12.09,57.27,70.75,-3.50E-031,3.05,3.05,318.42,TARP,DOE-2,104.47,127.60,89.32,38.28,8,6,0,Yes
 Zone Information, THERMAL ZONE 13,0.0,-8.51,76.67,3.05,-2.50,78.22,4.57,1,1,1,-8.51,3.59,71.85,83.46,3.05,6.10,3.05,226.03,TARP,DOE-2,74.16,105.35,73.75,31.61,7,5,0,Yes
 Zone Information, THERMAL ZONE 14,0.0,1.09,70.75,0.00,7.68,71.91,1.52,1,1,1,1.09,13.30,65.99,77.45,0.00,3.05,3.05,224.21,TARP,DOE-2,73.56,105.06,73.54,31.52,7,5,0,Yes
 Zone Information, THERMAL ZONE 15,0.0,5.16,77.45,0.00,10.01,78.40,1.52,1,1,1,5.16,14.85,73.64,83.15,0.00,3.05,3.05,148.49,TARP,DOE-2,48.72,85.19,59.63,25.56,6,4,0,Yes
 Zone Information, THERMAL ZONE 16,0.0,4.89,59.10,3.05,-0.85,57.80,4.57,1,1,1,-6.86,4.89,52.66,63.93,3.05,6.10,3.05,212.01,TARP,DOE-2,69.56,102.51,71.76,30.75,7,5,0,Yes
 Zone Information, THERMAL ZONE 17,0.0,-3.06,63.93,3.05,5.10,63.72,4.57,1,1,1,-3.06,12.09,57.27,70.75,3.05,6.10,3.05,318.42,TARP,DOE-2,104.47,127.60,89.32,38.28,8,6,0,Yes
 Zone Information, THERMAL ZONE 18,0.0,-3.06,63.93,39.14,-1.71,68.07,40.67,1,1,1,-12.05,8.63,51.96,84.19,39.14,42.19,3.05,222.58,TARP,DOE-2,73.02,234.77,164.34,70.43,14,12,0,Yes
 Zone Information, THERMAL ZONE 19,0.0,-2.66,82.39,3.05,2.13,83.33,4.57,1,1,1,-2.66,6.92,78.72,87.99,3.05,6.10,3.05,143.31,TARP,DOE-2,47.02,83.74,58.62,25.12,6,4,0,Yes
 Zone Information, THERMAL ZONE 2,0.0,-4.77,64.97,3.05,-10.69,64.08,4.57,1,1,1,-16.59,-4.77,58.39,69.77,3.05,6.10,3.05,215.59,TARP,DOE-2,70.73,102.95,72.07,30.89,7,5,0,Yes
 Zone Information, THERMAL ZONE 20,0.0,-8.77,58.39,3.05,-13.47,57.56,4.57,1,1,1,-18.17,-8.77,53.00,62.13,3.05,6.10,3.05,138.14,TARP,DOE-2,45.32,82.24,57.57,24.67,6,4,0,Yes
 Zone Information, THERMAL ZONE 21,0.0,-8.77,58.39,39.14,-13.47,57.56,40.67,1,1,1,-18.17,-8.77,53.00,62.13,39.14,42.19,3.05,138.14,TARP,DOE-2,45.32,82.24,57.57,24.67,6,4,0,Yes
 Zone Information, THERMAL ZONE 22,0.0,-6.86,57.68,3.05,-5.38,52.86,4.57,1,1,1,-10.34,-0.44,48.03,57.68,3.05,6.10,3.05,153.85,TARP,DOE-2,50.48,86.77,60.74,26.03,6,4,0,Yes
 Zone Information, THERMAL ZONE 23,0.0,1.09,70.75,21.10,7.68,71.91,22.62,1,10,1,1.09,13.30,65.99,77.45,21.10,24.14,3.05,224.21,TARP,DOE-2,73.56,105.06,73.54,31.52,7,5,0,Yes
 Zone Information, THERMAL ZONE 24,0.0,5.16,77.45,3.05,10.01,78.40,4.57,1,1,1,5.16,14.85,73.64,83.15,3.05,6.10,3.05,148.49,TARP,DOE-2,48.72,85.19,59.63,25.56,6,4,0,Yes
 Zone Information, THERMAL ZONE 25,0.0,-0.59,71.85,3.05,-6.63,70.82,4.57,1,1,1,-12.65,-0.59,64.97,76.67,3.05,6.10,3.05,226.77,TARP,DOE-2,74.40,105.42,73.79,31.63,6,4,0,Yes
 Zone Information, THERMAL ZONE 26,0.0,-3.06,63.93,3.05,-1.71,68.07,4.57,1,1,1,-12.05,8.63,51.96,84.19,3.05,6.10,3.05,222.58,TARP,DOE-2,73.02,234.77,164.34,70.43,14,12,0,Yes
 Zone Information, THERMAL ZONE 27,0.0,1.09,70.75,3.05,7.68,71.91,4.57,1,1,1,1.09,13.30,65.99,77.45,3.05,6.10,3.05,224.21,TARP,DOE-2,73.56,105.06,73.54,31.52,7,5,0,Yes
 Zone Information, THERMAL ZONE 28,0.0,-3.06,63.93,21.10,-1.71,68.07,22.62,1,10,1,-12.05,8.63,51.96,84.19,21.10,24.14,3.05,222.58,TARP,DOE-2,73.02,234.77,164.34,70.43,14,12,0,Yes
 Zone Information, THERMAL ZONE 29,0.0,-3.06,63.93,21.10,5.10,63.72,22.62,1,10,1,-3.06,12.09,57.27,70.75,21.10,24.14,3.05,318.42,TARP,DOE-2,104.47,127.60,89.32,38.28,8,6,0,Yes
 Zone Information, THERMAL ZONE 3,0.0,-8.51,76.67,0.00,-2.50,78.22,1.52,1,10,1,-8.51,3.59,71.85,83.46,0.00,3.05,3.05,226.03,TARP,DOE-2,74.16,105.35,73.75,31.61,7,5,0,Yes
 Zone Information, THERMAL ZONE 30,0.0,-2.66,82.39,21.10,2.13,83.33,22.62,1,10,1,-2.66,6.92,78.72,87.99,21.10,24.14,3.05,143.31,TARP,DOE-2,47.02,83.74,58.62,25.12,6,4,0,Yes
 Zone Information, THERMAL ZONE 31,0.0,-0.59,71.85,21.10,-6.63,70.82,22.62,1,10,1,-12.65,-0.59,64.97,76.67,21.10,24.14,3.05,226.77,TARP,DOE-2,74.40,105.42,73.79,31.63,6,4,0,Yes
 Zone Information, THERMAL ZONE 32,0.0,4.89,59.10,21.10,-0.85,57.80,22.62,1,10,1,-6.86,4.89,52.66,63.93,21.10,24.14,3.05,212.01,TARP,DOE-2,69.56,102.51,71.76,30.75,7,5,0,Yes
 Zone Information, THERMAL ZONE 33,0.0,-6.86,57.68,21.10,-5.38,52.86,22.62,1,10,1,-10.34,-0.44,48.03,57.68,21.10,24.14,3.05,153.85,TARP,DOE-2,50.48,86.77,60.74,26.03,6,4,0,Yes
 Zone Information, THERMAL ZONE 34,0.0,-8.77,58.39,21.10,-13.47,57.56,22.62,1,10,1,-18.17,-8.77,53.00,62.13,21.10,24.14,3.05,138.14,TARP,DOE-2,45.32,82.24,57.57,24.67,6,4,0,Yes
 Zone Information, THERMAL ZONE 35,0.0,-8.51,76.67,21.10,-2.50,78.22,22.62,1,10,1,-8.51,3.59,71.85,83.46,21.10,24.14,3.05,226.03,TARP,DOE-2,74.16,105.35,73.75,31.61,7,5,0,Yes
 Zone Information, THERMAL ZONE 36,0.0,-4.77,64.97,21.10,-10.69,64.08,22.62,1,10,1,-16.59,-4.77,58.39,69.77,21.10,24.14,3.05,215.59,TARP,DOE-2,70.73,102.95,72.07,30.89,7,5,0,Yes
 Zone Information, THERMAL ZONE 37,0.0,-8.51,76.67,39.14,-2.50,78.22,40.67,1,1,1,-8.51,3.59,71.85,83.46,39.14,42.19,3.05,226.03,TARP,DOE-2,74.16,105.35,73.75,31.61,7,5,0,Yes
 Zone Information, THERMAL ZONE 38,0.0,-2.66,82.39,39.14,2.13,83.33,40.67,1,1,1,-2.66,6.92,78.72,87.99,39.14,42.19,3.05,143.31,TARP,DOE-2,47.02,83.74,58.62,25.12,6,4,0,Yes
 Zone Information, THERMAL ZONE 39,0.0,-4.77,64.97,39.14,-10.69,64.08,40.67,1,1,1,-16.59,-4.77,58.39,69.77,39.14,42.19,3.05,215.59,TARP,DOE-2,70.73,102.95,72.07,30.89,7,5,0,Yes
 Zone Information, THERMAL ZONE 4,0.0,-4.77,64.97,0.00,-10.69,64.08,1.52,1,1,1,-16.59,-4.77,58.39,69.77,-5.31E-032,3.05,3.05,215.59,TARP,DOE-2,70.73,102.95,72.07,30.89,7,5,0,Yes
 Zone Information, THERMAL ZONE 40,0.0,-0.59,71.85,39.14,-6.63,70.82,40.67,1,1,1,-12.65,-0.59,64.97,76.67,39.14,42.19,3.05,226.77,TARP,DOE-2,74.40,105.42,73.79,31.63,6,4,0,Yes
 Zone Information, THERMAL ZONE 41,0.0,-6.86,57.68,39.14,-5.38,52.86,40.67,1,1,1,-10.34,-0.44,48.03,57.68,39.14,42.19,3.05,153.85,TARP,DOE-2,50.48,86.77,60.74,26.03,6,4,0,Yes
 Zone Information, THERMAL ZONE 42,0.0,5.16,77.45,39.14,10.01,78.40,40.67,1,1,1,5.16,14.85,73.64,83.15,39.14,42.19,3.05,148.49,TARP,DOE-2,48.72,85.19,59.63,25.56,6,4,0,Yes
 Zone Information, THERMAL ZONE 43,0.0,-3.06,63.93,39.14,5.10,63.72,40.67,1,1,1,-3.06,12.09,57.27,70.75,39.14,42.19,3.05,318.42,TARP,DOE-2,104.47,127.60,89.32,38.28,8,6,0,Yes
 Zone Information, THERMAL ZONE 44,0.0,1.09,70.75,39.14,7.68,71.91,40.67,1,1,1,1.09,13.30,65.99,77.45,39.14,42.19,3.05,224.21,TARP,DOE-2,73.56,105.06,73.54,31.52,7,5,0,Yes
 Zone Information, THERMAL ZONE 5,0.0,-3.06,63.93,0.00,-1.71,68.07,1.52,1,1,1,-12.05,8.63,51.96,84.19,0.00,3.05,3.05,445.15,TARP,DOE-2,146.05,469.53,328.67,140.86,28,24,0,Yes
 Zone Information, THERMAL ZONE 6,0.0,5.16,77.45,21.10,10.01,78.40,22.62,1,10,1,5.16,14.85,73.64,83.15,21.10,24.14,3.05,148.49,TARP,DOE-2,48.72,85.19,59.63,25.56,6,4,0,Yes
 Zone Information, THERMAL ZONE 7,0.0,4.89,59.10,0.00,-0.85,57.80,1.52,1,1,1,-6.86,4.89,52.66,63.93,0.00,3.05,3.05,212.01,TARP,DOE-2,69.56,102.51,71.76,30.75,7,5,0,Yes
 Zone Information, THERMAL ZONE 8,0.0,-0.59,71.85,0.00,-6.63,70.82,1.52,1,1,1,-12.65,-0.59,64.97,76.67,-3.87E-032,3.05,3.05,226.77,TARP,DOE-2,74.40,105.42,73.79,31.63,6,4,0,Yes
 Zone Information, THERMAL ZONE 9,0.0,-8.77,58.39,0.00,-13.47,57.56,1.52,1,1,1,-18.17,-8.77,53.00,62.13,0.00,3.05,3.05,138.14,TARP,DOE-2,45.32,82.24,57.57,24.67,6,4,0,Yes
! <Zone Internal Gains Nominal>,Zone Name, Floor Area {m2},# Occupants,Area per Occupant {m2/person},Occupant per Area {person/m2},Interior Lighting {W/m2},Electric Load {W/m2},Gas Load {W/m2},Other Load {W/m2},Hot Water Eq {W/m2},Steam Equipment {W/m2},Sum Loads per Area {W/m2},Outdoor Controlled Baseboard Heat
 Zone Internal Gains Nominal, THERMAL ZONE 1,50.48,0.0,N/A,0.000,0.000,0.000,0.000,0.000,0.000,0.000,0.000,No
 Zone Internal Gains Nominal, THERMAL ZONE 10,69.56,2.0,35.324,2.831E-002,0.000,8.150,0.000,0.000,0.000,0.000,8.150,No
 Zone Internal Gains Nominal, THERMAL ZONE 11,47.02,1.3,35.324,2.831E-002,0.000,8.150,0.000,0.000,0.000,0.000,8.150,No
 Zone Internal Gains Nominal, THERMAL ZONE 12,104.47,3.0,35.324,2.831E-002,0.000,8.150,0.000,0.000,0.000,0.000,8.150,No
 Zone Internal Gains Nominal, THERMAL ZONE 13,74.16,2.1,35.324,2.831E-002,0.000,8.150,0.000,0.000,0.000,0.000,8.150,No
 Zone Internal Gains Nominal, THERMAL ZONE 14,73.56,2.1,35.324,2.831E-002,0.000,8.150,0.000,0.000,0.000,0.000,8.150,No
 Zone Internal Gains Nominal, THERMAL ZONE 15,48.72,1.4,35.324,2.831E-002,0.000,8.150,0.000,0.000,0.000,0.000,8.150,No
 Zone Internal Gains Nominal, THERMAL ZONE 16,69.56,2.0,35.324,2.831E-002,0.000,8.150,0.000,0.000,0.000,0.000,8.150,No
 Zone Internal Gains Nominal, THERMAL ZONE 17,104.47,3.0,35.324,2.831E-002,0.000,8.150,0.000,0.000,0.000,0.000,8.150,No
 Zone Internal Gains Nominal, THERMAL ZONE 18,73.02,0.0,N/A,0.000,0.000,0.000,0.000,0.000,0.000,0.000,0.000,No
 Zone Internal Gains Nominal, THERMAL ZONE 19,47.02,1.3,35.324,2.831E-002,0.000,8.150,0.000,0.000,0.000,0.000,8.150,No
 Zone Internal Gains Nominal, THERMAL ZONE 2,70.73,2.0,35.324,2.831E-002,0.000,8.150,0.000,0.000,0.000,0.000,8.150,No
 Zone Internal Gains Nominal, THERMAL ZONE 20,45.32,1.3,35.324,2.831E-002,0.000,8.150,0.000,0.000,0.000,0.000,8.150,No
 Zone Internal Gains Nominal, THERMAL ZONE 21,45.32,1.3,35.324,2.831E-002,0.000,8.150,0.000,0.000,0.000,0.000,8.150,No
 Zone Internal Gains Nominal, THERMAL ZONE 22,50.48,1.4,35.324,2.831E-002,0.000,8.150,0.000,0.000,0.000,0.000,8.150,No
 Zone Internal Gains Nominal, THERMAL ZONE 23,73.56,2.1,35.324,2.831E-002,0.000,8.150,0.000,0.000,0.000,0.000,8.150,No
 Zone Internal Gains Nominal, THERMAL ZONE 24,48.72,1.4,35.324,2.831E-002,0.000,8.150,0.000,0.000,0.000,0.000,8.150,No
 Zone Internal Gains Nominal, THERMAL ZONE 25,74.40,2.1,35.324,2.831E-002,0.000,8.150,0.000,0.000,0.000,0.000,8.150,No
 Zone Internal Gains Nominal, THERMAL ZONE 26,73.02,0.0,N/A,0.000,0.000,0.000,0.000,0.000,0.000,0.000,0.000,No
 Zone Internal Gains Nominal, THERMAL ZONE 27,73.56,2.1,35.324,2.831E-002,0.000,8.150,0.000,0.000,0.000,0.000,8.150,No
 Zone Internal Gains Nominal, THERMAL ZONE 28,73.02,0.0,N/A,0.000,0.000,0.000,0.000,0.000,0.000,0.000,0.000,No
 Zone Internal Gains Nominal, THERMAL ZONE 29,104.47,3.0,35.324,2.831E-002,0.000,8.150,0.000,0.000,0.000,0.000,8.150,No
 Zone Internal Gains Nominal, THERMAL ZONE 3,74.16,2.1,35.324,2.831E-002,0.000,8.150,0.000,0.000,0.000,0.000,8.150,No
 Zone Internal Gains Nominal, THERMAL ZONE 30,47.02,1.3,35.324,2.831E-002,0.000,8.150,0.000,0.000,0.000,0.000,8.150,No
 Zone Internal Gains Nominal, THERMAL ZONE 31,74.40,2.1,35.324,2.831E-002,0.000,8.150,0.000,0.000,0.000,0.000,8.150,No
 Zone Internal Gains Nominal, THERMAL ZONE 32,69.56,2.0,35.324,2.831E-002,0.000,8.150,0.000,0.000,0.000,0.000,8.150,No
 Zone Internal Gains Nominal, THERMAL ZONE 33,50.48,1.4,35.324,2.831E-002,0.000,8.150,0.000,0.000,0.000,0.000,8.150,No
 Zone Internal Gains Nominal, THERMAL ZONE 34,45.32,1.3,35.324,2.831E-002,0.000,8.150,0.000,0.000,0.000,0.000,8.150,No
 Zone Internal Gains Nominal, THERMAL ZONE 35,74.16,2.1,35.324,2.831E-002,0.000,8.150,0.000,0.000,0.000,0.000,8.150,No
 Zone Internal Gains Nominal, THERMAL ZONE 36,70.73,2.0,35.324,2.831E-002,0.000,8.150,0.000,0.000,0.000,0.000,8.150,No
 Zone Internal Gains Nominal, THERMAL ZONE 37,74.16,2.1,35.324,2.831E-002,0.000,8.150,0.000,0.000,0.000,0.000,8.150,No
 Zone Internal Gains Nominal, THERMAL ZONE 38,47.02,1.3,35.324,2.831E-002,0.000,8.150,0.000,0.000,0.000,0.000,8.150,No
 Zone Internal Gains Nominal, THERMAL ZONE 39,70.73,2.0,35.324,2.831E-002,0.000,8.150,0.000,0.000,0.000,0.000,8.150,No
 Zone Internal Gains Nominal, THERMAL ZONE 4,70.73,2.0,35.324,2.831E-002,0.000,8.150,0.000,0.000,0.000,0.000,8.150,No
 Zone Internal Gains Nominal, THERMAL ZONE 40,74.40,2.1,35.324,2.831E-002,0.000,8.150,0.000,0.000,0.000,0.000,8.150,No
 Zone Internal Gains Nominal, THERMAL ZONE 41,50.48,1.4,35.324,2.831E-002,0.000,8.150,0.000,0.000,0.000,0.000,8.150,No
 Zone Internal Gains Nominal, THERMAL ZONE 42,48.72,1.4,35.324,2.831E-002,0.000,8.150,0.000,0.000,0.000,0.000,8.150,No
 Zone Internal Gains Nominal, THERMAL ZONE 43,104.47,3.0,35.324,2.831E-002,0.000,8.150,0.000,0.000,0.000,0.000,8.150,No
 Zone Internal Gains Nominal, THERMAL ZONE 44,73.56,2.1,35.324,2.831E-002,0.000,8.150,0.000,0.000,0.000,0.000,8.150,No
 Zone Internal Gains Nominal, THERMAL ZONE 5,146.05,4.1,35.324,2.831E-002,0.000,8.150,0.000,0.000,0.000,0.000,8.150,No
 Zone Internal Gains Nominal, THERMAL ZONE 6,48.72,1.4,35.324,2.831E-002,0.000,8.150,0.000,0.000,0.000,0.000,8.150,No
 Zone Internal Gains Nominal, THERMAL ZONE 7,69.56,2.0,35.324,2.831E-002,0.000,8.150,0.000,0.000,0.000,0.000,8.150,No
 Zone Internal Gains Nominal, THERMAL ZONE 8,74.40,2.1,35.324,2.831E-002,0.000,8.150,0.000,0.000,0.000,0.000,8.150,No
 Zone Internal Gains Nominal, THERMAL ZONE 9,45.32,1.3,35.324,2.831E-002,0.000,8.150,0.000,0.000,0.000,0.000,8.150,No
! <People Internal Gains Nominal>,Name,Schedule Name,Zone Name,Zone Floor Area {m2},# Zone Occupants,Number of People {},People/Floor Area {person/m2},Floor Area per person {m2/person},Fraction Radiant,Fraction Convected,Sensible Fraction Calculation,Activity level,ASHRAE 55 Warnings,Carbon Dioxide Generation Rate,Nominal Minimum Number of People,Nominal Maximum Number of People
 People Internal Gains Nominal, SPACE 116 PEOPLE 1,MIDRISEAPARTMENT APARTMENT OCC,THERMAL ZONE 2,70.73,2.0,2.0,2.831E-002,35.324,0.300,0.700,AutoCalculate,MIDRISEAPARTMENT ACTIVITY,No,3.8200E-008,1,2
 People Internal Gains Nominal, SPACE 109 PEOPLE 1,MIDRISEAPARTMENT APARTMENT OCC,THERMAL ZONE 3,74.16,2.1,2.1,2.831E-002,35.324,0.300,0.700,AutoCalculate,MIDRISEAPARTMENT ACTIVITY,No,3.8200E-008,1,2
 People Internal Gains Nominal, SPACE 106 PEOPLE 1,MIDRISEAPARTMENT APARTMENT OCC,THERMAL ZONE 4,70.73,2.0,2.0,2.831E-002,35.324,0.300,0.700,AutoCalculate,MIDRISEAPARTMENT ACTIVITY,No,3.8200E-008,1,2
 People Internal Gains Nominal, SPACE 102 PEOPLE 1,MIDRISEAPARTMENT APARTMENT OCC,THERMAL ZONE 5,146.05,4.1,4.1,2.831E-002,35.324,0.300,0.700,AutoCalculate,MIDRISEAPARTMENT ACTIVITY,No,3.8200E-008,1,4
 People Internal Gains Nominal, SPACE 103 PEOPLE 1,MIDRISEAPARTMENT APARTMENT OCC,THERMAL ZONE 7,69.56,2.0,2.0,2.831E-002,35.324,0.300,0.700,AutoCalculate,MIDRISEAPARTMENT ACTIVITY,No,3.8200E-008,0,2
 People Internal Gains Nominal, SPACE 112 PEOPLE 1,MIDRISEAPARTMENT APARTMENT OCC,THERMAL ZONE 17,104.47,3.0,3.0,2.831E-002,35.324,0.300,0.700,AutoCalculate,MIDRISEAPARTMENT ACTIVITY,No,3.8200E-008,1,3
 People Internal Gains Nominal, SPACE 114 PEOPLE 1,MIDRISEAPARTMENT APARTMENT OCC,THERMAL ZONE 16,69.56,2.0,2.0,2.831E-002,35.324,0.300,0.700,AutoCalculate,MIDRISEAPARTMENT ACTIVITY,No,3.8200E-008,0,2
 People Internal Gains Nominal, SPACE 107 PEOPLE 1,MIDRISEAPARTMENT APARTMENT OCC,THERMAL ZONE 8,74.40,2.1,2.1,2.831E-002,35.324,0.300,0.700,AutoCalculate,MIDRISEAPARTMENT ACTIVITY,No,3.8200E-008,1,2
 People Internal Gains Nominal, SPACE 104 PEOPLE 1,MIDRISEAPARTMENT APARTMENT OCC,THERMAL ZONE 9,45.32,1.3,1.3,2.831E-002,35.324,0.300,0.700,AutoCalculate,MIDRISEAPARTMENT ACTIVITY,No,3.8200E-008,0,1
 People Internal Gains Nominal, SPACE 135 PEOPLE 1,MIDRISEAPARTMENT APARTMENT OCC,THERMAL ZONE 10,69.56,2.0,2.0,2.831E-002,35.324,0.300,0.700,AutoCalculate,MIDRISEAPARTMENT ACTIVITY,No,3.8200E-008,0,2
 People Internal Gains Nominal, SPACE 111 PEOPLE 1,MIDRISEAPARTMENT APARTMENT OCC,THERMAL ZONE 11,47.02,1.3,1.3,2.831E-002,35.324,0.300,0.700,AutoCalculate,MIDRISEAPARTMENT ACTIVITY,No,3.8200E-008,0,1
 People Internal Gains Nominal, SPACE 105 PEOPLE 1,MIDRISEAPARTMENT APARTMENT OCC,THERMAL ZONE 12,104.47,3.0,3.0,2.831E-002,35.324,0.300,0.700,AutoCalculate,MIDRISEAPARTMENT ACTIVITY,No,3.8200E-008,1,3
 People Internal Gains Nominal, SPACE 119 PEOPLE 1,MIDRISEAPARTMENT APARTMENT OCC,THERMAL ZONE 13,74.16,2.1,2.1,2.831E-002,35.324,0.300,0.700,AutoCalculate,MIDRISEAPARTMENT ACTIVITY,No,3.8200E-008,1,2
 People Internal Gains Nominal, SPACE 108 PEOPLE 1,MIDRISEAPARTMENT APARTMENT OCC,THERMAL ZONE 14,73.56,2.1,2.1,2.831E-002,35.324,0.300,0.700,AutoCalculate,MIDRISEAPARTMENT ACTIVITY,No,3.8200E-008,1,2
 People Internal Gains Nominal, SPACE 110 PEOPLE 1,MIDRISEAPARTMENT APARTMENT OCC,THERMAL ZONE 15,48.72,1.4,1.4,2.831E-002,35.324,0.300,0.700,AutoCalculate,MIDRISEAPARTMENT ACTIVITY,No,3.8200E-008,0,1
 People Internal Gains Nominal, SPACE 115 PEOPLE 1,MIDRISEAPARTMENT APARTMENT OCC,THERMAL ZONE 19,47.02,1.3,1.3,2.831E-002,35.324,0.300,0.700,AutoCalculate,MIDRISEAPARTMENT ACTIVITY,No,3.8200E-008,0,1
 People Internal Gains Nominal, SPACE 113 PEOPLE 1,MIDRISEAPARTMENT APARTMENT OCC,THERMAL ZONE 20,45.32,1.3,1.3,2.831E-002,35.324,0.300,0.700,AutoCalculate,MIDRISEAPARTMENT ACTIVITY,No,3.8200E-008,0,1
 People Internal Gains Nominal, SPACE 117 PEOPLE 1,MIDRISEAPARTMENT APARTMENT OCC,THERMAL ZONE 22,50.48,1.4,1.4,2.831E-002,35.324,0.300,0.700,AutoCalculate,MIDRISEAPARTMENT ACTIVITY,No,3.8200E-008,0,1
 People Internal Gains Nominal, SPACE 128 PEOPLE 1,MIDRISEAPARTMENT APARTMENT OCC,THERMAL ZONE 23,73.56,2.1,2.1,2.831E-002,35.324,0.300,0.700,AutoCalculate,MIDRISEAPARTMENT ACTIVITY,No,3.8200E-008,1,2
 People Internal Gains Nominal, SPACE 118 PEOPLE 1,MIDRISEAPARTMENT APARTMENT OCC,THERMAL ZONE 24,48.72,1.4,1.4,2.831E-002,35.324,0.300,0.700,AutoCalculate,MIDRISEAPARTMENT ACTIVITY,No,3.8200E-008,0,1
 People Internal Gains Nominal, SPACE 120 PEOPLE 1,MIDRISEAPARTMENT APARTMENT OCC,THERMAL ZONE 25,74.40,2.1,2.1,2.831E-002,35.324,0.300,0.700,AutoCalculate,MIDRISEAPARTMENT ACTIVITY,No,3.8200E-008,1,2
 People Internal Gains Nominal, SPACE 122 PEOPLE 1,MIDRISEAPARTMENT APARTMENT OCC,THERMAL ZONE 27,73.56,2.1,2.1,2.831E-002,35.324,0.300,0.700,AutoCalculate,MIDRISEAPARTMENT ACTIVITY,No,3.8200E-008,1,2
 People Internal Gains Nominal, SPACE 124 PEOPLE 1,MIDRISEAPARTMENT APARTMENT OCC,THERMAL ZONE 29,104.47,3.0,3.0,2.831E-002,35.324,0.300,0.700,AutoCalculate,MIDRISEAPARTMENT ACTIVITY,No,3.8200E-008,1,3
 People Internal Gains Nominal, SPACE 125 PEOPLE 1,MIDRISEAPARTMENT APARTMENT OCC,THERMAL ZONE 31,74.40,2.1,2.1,2.831E-002,35.324,0.300,0.700,AutoCalculate,MIDRISEAPARTMENT ACTIVITY,No,3.8200E-008,1,2
 People Internal Gains Nominal, SPACE 134 PEOPLE 1,MIDRISEAPARTMENT APARTMENT OCC,THERMAL ZONE 32,69.56,2.0,2.0,2.831E-002,35.324,0.300,0.700,AutoCalculate,MIDRISEAPARTMENT ACTIVITY,No,3.8200E-008,0,2
 People Internal Gains Nominal, SPACE 131 PEOPLE 1,MIDRISEAPARTMENT APARTMENT OCC,THERMAL ZONE 35,74.16,2.1,2.1,2.831E-002,35.324,0.300,0.700,AutoCalculate,MIDRISEAPARTMENT ACTIVITY,No,3.8200E-008,1,2
 People Internal Gains Nominal, SPACE 132 PEOPLE 1,MIDRISEAPARTMENT APARTMENT OCC,THERMAL ZONE 36,70.73,2.0,2.0,2.831E-002,35.324,0.300,0.700,AutoCalculate,MIDRISEAPARTMENT ACTIVITY,No,3.8200E-008,1,2
 People Internal Gains Nominal, SPACE 136 PEOPLE 1,MIDRISEAPARTMENT APARTMENT OCC,THERMAL ZONE 37,74.16,2.1,2.1,2.831E-002,35.324,0.300,0.700,AutoCalculate,MIDRISEAPARTMENT ACTIVITY,No,3.8200E-008,1,2
 People Internal Gains Nominal, SPACE 138 PEOPLE 1,MIDRISEAPARTMENT APARTMENT OCC,THERMAL ZONE 39,70.73,2.0,2.0,2.831E-002,35.324,0.300,0.700,AutoCalculate,MIDRISEAPARTMENT ACTIVITY,No,3.8200E-008,1,2
 People Internal Gains Nominal, SPACE 139 PEOPLE 1,MIDRISEAPARTMENT APARTMENT OCC,THERMAL ZONE 40,74.40,2.1,2.1,2.831E-002,35.324,0.300,0.700,AutoCalculate,MIDRISEAPARTMENT ACTIVITY,No,3.8200E-008,1,2
 People Internal Gains Nominal, SPACE 143 PEOPLE 1,MIDRISEAPARTMENT APARTMENT OCC,THERMAL ZONE 43,104.47,3.0,3.0,2.831E-002,35.324,0.300,0.700,AutoCalculate,MIDRISEAPARTMENT ACTIVITY,No,3.8200E-008,1,3
 People Internal Gains Nominal, SPACE 144 PEOPLE 1,MIDRISEAPARTMENT APARTMENT OCC,THERMAL ZONE 44,73.56,2.1,2.1,2.831E-002,35.324,0.300,0.700,AutoCalculate,MIDRISEAPARTMENT ACTIVITY,No,3.8200E-008,1,2
 People Internal Gains Nominal, SPACE 140 PEOPLE 3,MIDRISEAPARTMENT APARTMENT OCC,THERMAL ZONE 21,45.32,1.3,1.3,2.831E-002,35.324,0.300,0.700,AutoCalculate,MIDRISEAPARTMENT ACTIVITY,No,3.8200E-008,0,1
 People Internal Gains Nominal, SPACE 129 PEOPLE 8,MIDRISEAPARTMENT APARTMENT OCC,THERMAL ZONE 30,47.02,1.3,1.3,2.831E-002,35.324,0.300,0.700,AutoCalculate,MIDRISEAPARTMENT ACTIVITY,No,3.8200E-008,0,1
 People Internal Gains Nominal, SPACE 126 PEOPLE 6,MIDRISEAPARTMENT APARTMENT OCC,THERMAL ZONE 33,50.48,1.4,1.4,2.831E-002,35.324,0.300,0.700,AutoCalculate,MIDRISEAPARTMENT ACTIVITY,No,3.8200E-008,0,1
 People Internal Gains Nominal, SPACE 127 PEOPLE 7,MIDRISEAPARTMENT APARTMENT OCC,THERMAL ZONE 34,45.32,1.3,1.3,2.831E-002,35.324,0.300,0.700,AutoCalculate,MIDRISEAPARTMENT ACTIVITY,No,3.8200E-008,0,1
 People Internal Gains Nominal, SPACE 137 PEOPLE 2,MIDRISEAPARTMENT APARTMENT OCC,THERMAL ZONE 38,47.02,1.3,1.3,2.831E-002,35.324,0.300,0.700,AutoCalculate,MIDRISEAPARTMENT ACTIVITY,No,3.8200E-008,0,1
 People Internal Gains Nominal, SPACE 141 PEOPLE 4,MIDRISEAPARTMENT APARTMENT OCC,THERMAL ZONE 41,50.48,1.4,1.4,2.831E-002,35.324,0.300,0.700,AutoCalculate,MIDRISEAPARTMENT ACTIVITY,No,3.8200E-008,0,1
 People Internal Gains Nominal, SPACE 142 PEOPLE 5,MIDRISEAPARTMENT APARTMENT OCC,THERMAL ZONE 42,48.72,1.4,1.4,2.831E-002,35.324,0.300,0.700,AutoCalculate,MIDRISEAPARTMENT ACTIVITY,No,3.8200E-008,0,1
 People Internal Gains Nominal, SPACE 130 PEOPLE 9,MIDRISEAPARTMENT APARTMENT OCC,THERMAL ZONE 6,48.72,1.4,1.4,2.831E-002,35.324,0.300,0.700,AutoCalculate,MIDRISEAPARTMENT ACTIVITY,No,3.8200E-008,0,1
! <ElectricEquipment Internal Gains Nominal>,Name,Schedule Name,Zone Name,Zone Floor Area {m2},# Zone Occupants,Equipment Level {W},Equipment/Floor Area {W/m2},Equipment per person {W/person},Fraction Latent,Fraction Radiant,Fraction Lost,Fraction Convected,End-Use SubCategory,Nominal Minimum Equipment Level {W},Nominal Maximum Equipment Level {W}
 ElectricEquipment Internal Gains Nominal, SPACE 116 ELECTRIC EQUIPMENT 1,MURB APPLIANCES AND LIGHTING,THERMAL ZONE 2,70.73,2.0,576.474,8.150,287.893,0.000,0.500,0.000,0.500,General,0.000,576.474
 ElectricEquipment Internal Gains Nominal, SPACE 109 ELECTRIC EQUIPMENT 1,MURB APPLIANCES AND LIGHTING,THERMAL ZONE 3,74.16,2.1,604.388,8.150,287.893,0.000,0.500,0.000,0.500,General,0.000,604.388
 ElectricEquipment Internal Gains Nominal, SPACE 106 ELECTRIC EQUIPMENT 1,MURB APPLIANCES AND LIGHTING,THERMAL ZONE 4,70.73,2.0,576.474,8.150,287.893,0.000,0.500,0.000,0.500,General,0.000,576.474
 ElectricEquipment Internal Gains Nominal, SPACE 102 ELECTRIC EQUIPMENT 1,MURB APPLIANCES AND LIGHTING,THERMAL ZONE 5,146.05,4.1,1190.280,8.150,287.893,0.000,0.500,0.000,0.500,General,0.000,1190.280
 ElectricEquipment Internal Gains Nominal, SPACE 103 ELECTRIC EQUIPMENT 1,MURB APPLIANCES AND LIGHTING,THERMAL ZONE 7,69.56,2.0,566.895,8.150,287.893,0.000,0.500,0.000,0.500,General,0.000,566.895
 ElectricEquipment Internal Gains Nominal, SPACE 112 ELECTRIC EQUIPMENT 1,MURB APPLIANCES AND LIGHTING,THERMAL ZONE 17,104.47,3.0,851.406,8.150,287.893,0.000,0.500,0.000,0.500,General,0.000,851.406
 ElectricEquipment Internal Gains Nominal, SPACE 114 ELECTRIC EQUIPMENT 1,MURB APPLIANCES AND LIGHTING,THERMAL ZONE 16,69.56,2.0,566.895,8.150,287.893,0.000,0.500,0.000,0.500,General,0.000,566.895
 ElectricEquipment Internal Gains Nominal, SPACE 107 ELECTRIC EQUIPMENT 1,MURB APPLIANCES AND LIGHTING,THERMAL ZONE 8,74.40,2.1,606.353,8.150,287.893,0.000,0.500,0.000,0.500,General,0.000,606.353
 ElectricEquipment Internal Gains Nominal, SPACE 104 ELECTRIC EQUIPMENT 1,MURB APPLIANCES AND LIGHTING,THERMAL ZONE 9,45.32,1.3,369.369,8.150,287.893,0.000,0.500,0.000,0.500,General,0.000,369.369
 ElectricEquipment Internal Gains Nominal, SPACE 135 ELECTRIC EQUIPMENT 1,MURB APPLIANCES AND LIGHTING,THERMAL ZONE 10,69.56,2.0,566.895,8.150,287.893,0.000,0.500,0.000,0.500,General,0.000,566.895
 ElectricEquipment Internal Gains Nominal, SPACE 111 ELECTRIC EQUIPMENT 1,MURB APPLIANCES AND LIGHTING,THERMAL ZONE 11,47.02,1.3,383.183,8.150,287.893,0.000,0.500,0.000,0.500,General,0.000,383.183
 ElectricEquipment Internal Gains Nominal, SPACE 105 ELECTRIC EQUIPMENT 1,MURB APPLIANCES AND LIGHTING,THERMAL ZONE 12,104.47,3.0,851.406,8.150,287.893,0.000,0.500,0.000,0.500,General,0.000,851.406
 ElectricEquipment Internal Gains Nominal, SPACE 119 ELECTRIC EQUIPMENT 1,MURB APPLIANCES AND LIGHTING,THERMAL ZONE 13,74.16,2.1,604.388,8.150,287.893,0.000,0.500,0.000,0.500,General,0.000,604.388
 ElectricEquipment Internal Gains Nominal, SPACE 108 ELECTRIC EQUIPMENT 1,MURB APPLIANCES AND LIGHTING,THERMAL ZONE 14,73.56,2.1,599.516,8.150,287.893,0.000,0.500,0.000,0.500,General,0.000,599.516
 ElectricEquipment Internal Gains Nominal, SPACE 110 ELECTRIC EQUIPMENT 1,MURB APPLIANCES AND LIGHTING,THERMAL ZONE 15,48.72,1.4,397.043,8.150,287.893,0.000,0.500,0.000,0.500,General,0.000,397.043
 ElectricEquipment Internal Gains Nominal, SPACE 115 ELECTRIC EQUIPMENT 1,MURB APPLIANCES AND LIGHTING,THERMAL ZONE 19,47.02,1.3,383.183,8.150,287.893,0.000,0.500,0.000,0.500,General,0.000,383.183
 ElectricEquipment Internal Gains Nominal, SPACE 113 ELECTRIC EQUIPMENT 1,MURB APPLIANCES AND LIGHTING,THERMAL ZONE 20,45.32,1.3,369.369,8.150,287.893,0.000,0.500,0.000,0.500,General,0.000,369.369
 ElectricEquipment Internal Gains Nominal, SPACE 117 ELECTRIC EQUIPMENT 1,MURB APPLIANCES AND LIGHTING,THERMAL ZONE 22,50.48,1.4,411.389,8.150,287.893,0.000,0.500,0.000,0.500,General,0.000,411.389
 ElectricEquipment Internal Gains Nominal, SPACE 128 ELECTRIC EQUIPMENT 1,MURB APPLIANCES AND LIGHTING,THERMAL ZONE 23,73.56,2.1,599.516,8.150,287.893,0.000,0.500,0.000,0.500,General,0.000,599.516
 ElectricEquipment Internal Gains Nominal, SPACE 118 ELECTRIC EQUIPMENT 1,MURB APPLIANCES AND LIGHTING,THERMAL ZONE 24,48.72,1.4,397.043,8.150,287.893,0.000,0.500,0.000,0.500,General,0.000,397.043
 ElectricEquipment Internal Gains Nominal, SPACE 120 ELECTRIC EQUIPMENT 1,MURB APPLIANCES AND LIGHTING,THERMAL ZONE 25,74.40,2.1,606.353,8.150,287.893,0.000,0.500,0.000,0.500,General,0.000,606.353
 ElectricEquipment Internal Gains Nominal, SPACE 122 ELECTRIC EQUIPMENT 1,MURB APPLIANCES AND LIGHTING,THERMAL ZONE 27,73.56,2.1,599.516,8.150,287.893,0.000,0.500,0.000,0.500,General,0.000,599.516
 ElectricEquipment Internal Gains Nominal, SPACE 124 ELECTRIC EQUIPMENT 1,MURB APPLIANCES AND LIGHTING,THERMAL ZONE 29,104.47,3.0,851.406,8.150,287.893,0.000,0.500,0.000,0.500,General,0.000,851.406
 ElectricEquipment Internal Gains Nominal, SPACE 125 ELECTRIC EQUIPMENT 1,MURB APPLIANCES AND LIGHTING,THERMAL ZONE 31,74.40,2.1,606.353,8.150,287.893,0.000,0.500,0.000,0.500,General,0.000,606.353
 ElectricEquipment Internal Gains Nominal, SPACE 134 ELECTRIC EQUIPMENT 1,MURB APPLIANCES AND LIGHTING,THERMAL ZONE 32,69.56,2.0,566.895,8.150,287.893,0.000,0.500,0.000,0.500,General,0.000,566.895
 ElectricEquipment Internal Gains Nominal, SPACE 131 ELECTRIC EQUIPMENT 1,MURB APPLIANCES AND LIGHTING,THERMAL ZONE 35,74.16,2.1,604.388,8.150,287.893,0.000,0.500,0.000,0.500,General,0.000,604.388
 ElectricEquipment Internal Gains Nominal, SPACE 132 ELECTRIC EQUIPMENT 1,MURB APPLIANCES AND LIGHTING,THERMAL ZONE 36,70.73,2.0,576.474,8.150,287.893,0.000,0.500,0.000,0.500,General,0.000,576.474
 ElectricEquipment Internal Gains Nominal, SPACE 136 ELECTRIC EQUIPMENT 1,MURB APPLIANCES AND LIGHTING,THERMAL ZONE 37,74.16,2.1,604.388,8.150,287.893,0.000,0.500,0.000,0.500,General,0.000,604.388
 ElectricEquipment Internal Gains Nominal, SPACE 138 ELECTRIC EQUIPMENT 1,MURB APPLIANCES AND LIGHTING,THERMAL ZONE 39,70.73,2.0,576.474,8.150,287.893,0.000,0.500,0.000,0.500,General,0.000,576.474
 ElectricEquipment Internal Gains Nominal, SPACE 139 ELECTRIC EQUIPMENT 1,MURB APPLIANCES AND LIGHTING,THERMAL ZONE 40,74.40,2.1,606.353,8.150,287.893,0.000,0.500,0.000,0.500,General,0.000,606.353
 ElectricEquipment Internal Gains Nominal, SPACE 143 ELECTRIC EQUIPMENT 1,MURB APPLIANCES AND LIGHTING,THERMAL ZONE 43,104.47,3.0,851.406,8.150,287.893,0.000,0.500,0.000,0.500,General,0.000,851.406
 ElectricEquipment Internal Gains Nominal, SPACE 144 ELECTRIC EQUIPMENT 1,MURB APPLIANCES AND LIGHTING,THERMAL ZONE 44,73.56,2.1,599.516,8.150,287.893,0.000,0.500,0.000,0.500,General,0.000,599.516
 ElectricEquipment Internal Gains Nominal, SPACE 140 ELECTRIC EQUIPMENT 3,MURB APPLIANCES AND LIGHTING,THERMAL ZONE 21,45.32,1.3,369.369,8.150,287.893,0.000,0.500,0.000,0.500,General,0.000,369.369
 ElectricEquipment Internal Gains Nominal, SPACE 129 ELECTRIC EQUIPMENT 8,MURB APPLIANCES AND LIGHTING,THERMAL ZONE 30,47.02,1.3,383.183,8.150,287.893,0.000,0.500,0.000,0.500,General,0.000,383.183
 ElectricEquipment Internal Gains Nominal, SPACE 126 ELECTRIC EQUIPMENT 6,MURB APPLIANCES AND LIGHTING,THERMAL ZONE 33,50.48,1.4,411.389,8.150,287.893,0.000,0.500,0.000,0.500,General,0.000,411.389
 ElectricEquipment Internal Gains Nominal, SPACE 127 ELECTRIC EQUIPMENT 7,MURB APPLIANCES AND LIGHTING,THERMAL ZONE 34,45.32,1.3,369.369,8.150,287.893,0.000,0.500,0.000,0.500,General,0.000,369.369
 ElectricEquipment Internal Gains Nominal, SPACE 137 ELECTRIC EQUIPMENT 2,MURB APPLIANCES AND LIGHTING,THERMAL ZONE 38,47.02,1.3,383.183,8.150,287.893,0.000,0.500,0.000,0.500,General,0.000,383.183
 ElectricEquipment Internal Gains Nominal, SPACE 141 ELECTRIC EQUIPMENT 4,MURB APPLIANCES AND LIGHTING,THERMAL ZONE 41,50.48,1.4,411.389,8.150,287.893,0.000,0.500,0.000,0.500,General,0.000,411.389
 ElectricEquipment Internal Gains Nominal, SPACE 142 ELECTRIC EQUIPMENT 5,MURB APPLIANCES AND LIGHTING,THERMAL ZONE 42,48.72,1.4,397.043,8.150,287.893,0.000,0.500,0.000,0.500,General,0.000,397.043
 ElectricEquipment Internal Gains Nominal, SPACE 130 ELECTRIC EQUIPMENT 9,MURB APPLIANCES AND LIGHTING,THERMAL ZONE 6,48.72,1.4,397.043,8.150,287.893,0.000,0.500,0.000,0.500,General,0.000,397.043
! <Shadowing/Sun Position Calculations Annual Simulations>, Shading Calculation Method, Shading Calculation Update Frequency Method, Shading Calculation Update Frequency {days}, Maximum Figures in Shadow Overlap Calculations {}, Polygon Clipping Algorithm, Pixel Counting Resolution, Sky Diffuse Modeling Algorithm, Output External Shading Calculation Results, Disable Self-Shading Within Shading Zone Groups, Disable Self-Shading From Shading Zone Groups to Other Zones
Shadowing/Sun Position Calculations Annual Simulations,PolygonClipping,Periodic,20,15000,SutherlandHodgman,512,SimpleSkyDiffuseModeling,No,No,No
! <Water Heater Information>,Type,Name,Volume {m3},Maximum Capacity {W},Standard Rated Recovery Efficiency, Standard Rated Energy Factor
! <ZoneInfiltration Airflow Stats Nominal>,Name,Schedule Name,Zone Name, Zone Floor Area {m2}, # Zone Occupants,Design Volume Flow Rate {m3/s},Volume Flow Rate/Floor Area {m3/s-m2},Volume Flow Rate/Exterior Surface Area {m3/s-m2},ACH - Air Changes per Hour,Equation A - Constant Term Coefficient {},Equation B - Temperature Term Coefficient {1/C},Equation C - Velocity Term Coefficient {s/m}, Equation D - Velocity Squared Term Coefficient {s2/m2}
 ZoneInfiltration Airflow Stats Nominal, SPACE 101 HVAC OFF INFILTRATION,INFILTRATION HVAC OFF SCHEDULE,THERMAL ZONE 1,50.48,0.0,2.836E-002,5.619E-004,2.066E-004,0.664,0.107,1.199E-002,0.000,1.348E-002
 ZoneInfiltration Airflow Stats Nominal, SPACE 101 HVAC ON INFILTRATION,INFILTRATION HVAC ON SCHEDULE,THERMAL ZONE 1,50.48,0.0,2.836E-002,5.619E-004,2.066E-004,0.664,0.107,1.199E-002,0.000,1.348E-002
 ZoneInfiltration Airflow Stats Nominal, SPACE 135 HVAC OFF INFILTRATION,INFILTRATION HVAC OFF SCHEDULE,THERMAL ZONE 10,69.56,2.0,3.556E-002,5.112E-004,2.066E-004,0.604,0.107,1.199E-002,0.000,1.348E-002
 ZoneInfiltration Airflow Stats Nominal, SPACE 135 HVAC ON INFILTRATION,INFILTRATION HVAC ON SCHEDULE,THERMAL ZONE 10,69.56,2.0,3.556E-002,5.112E-004,2.066E-004,0.604,0.107,1.199E-002,0.000,1.348E-002
 ZoneInfiltration Airflow Stats Nominal, SPACE 111 HVAC OFF INFILTRATION,INFILTRATION HVAC OFF SCHEDULE,THERMAL ZONE 11,47.02,1.3,2.702E-002,5.747E-004,2.066E-004,0.679,0.107,1.199E-002,0.000,1.348E-002
 ZoneInfiltration Airflow Stats Nominal, SPACE 111 HVAC ON INFILTRATION,INFILTRATION HVAC ON SCHEDULE,THERMAL ZONE 11,47.02,1.3,2.702E-002,5.747E-004,2.066E-004,0.679,0.107,1.199E-002,0.000,1.348E-002
 ZoneInfiltration Airflow Stats Nominal, SPACE 105 HVAC OFF INFILTRATION,INFILTRATION HVAC OFF SCHEDULE,THERMAL ZONE 12,104.47,3.0,4.795E-002,4.590E-004,2.066E-004,0.542,0.107,1.199E-002,0.000,1.348E-002
 ZoneInfiltration Airflow Stats Nominal, SPACE 105 HVAC ON INFILTRATION,INFILTRATION HVAC ON SCHEDULE,THERMAL ZONE 12,104.47,3.0,4.795E-002,4.590E-004,2.066E-004,0.542,0.107,1.199E-002,0.000,1.348E-002
 ZoneInfiltration Airflow Stats Nominal, SPACE 119 HVAC OFF INFILTRATION,INFILTRATION HVAC OFF SCHEDULE,THERMAL ZONE 13,74.16,2.1,2.177E-002,2.936E-004,2.066E-004,0.347,0.107,1.199E-002,0.000,1.348E-002
 ZoneInfiltration Airflow Stats Nominal, SPACE 119 HVAC ON INFILTRATION,INFILTRATION HVAC ON SCHEDULE,THERMAL ZONE 13,74.16,2.1,2.177E-002,2.936E-004,2.066E-004,0.347,0.107,1.199E-002,0.000,1.348E-002
 ZoneInfiltration Airflow Stats Nominal, SPACE 108 HVAC OFF INFILTRATION,INFILTRATION HVAC OFF SCHEDULE,THERMAL ZONE 14,73.56,2.1,3.691E-002,5.018E-004,2.066E-004,0.593,0.107,1.199E-002,0.000,1.348E-002
 ZoneInfiltration Airflow Stats Nominal, SPACE 108 HVAC ON INFILTRATION,INFILTRATION HVAC ON SCHEDULE,THERMAL ZONE 14,73.56,2.1,3.691E-002,5.018E-004,2.066E-004,0.593,0.107,1.199E-002,0.000,1.348E-002
 ZoneInfiltration Airflow Stats Nominal, SPACE 110 HVAC OFF INFILTRATION,INFILTRATION HVAC OFF SCHEDULE,THERMAL ZONE 15,48.72,1.4,2.767E-002,5.680E-004,2.066E-004,0.671,0.107,1.199E-002,0.000,1.348E-002
 ZoneInfiltration Airflow Stats Nominal, SPACE 110 HVAC ON INFILTRATION,INFILTRATION HVAC ON SCHEDULE,THERMAL ZONE 15,48.72,1.4,2.767E-002,5.680E-004,2.066E-004,0.671,0.107,1.199E-002,0.000,1.348E-002
 ZoneInfiltration Airflow Stats Nominal, SPACE 114 HVAC OFF INFILTRATION,INFILTRATION HVAC OFF SCHEDULE,THERMAL ZONE 16,69.56,2.0,2.118E-002,3.045E-004,2.066E-004,0.360,0.107,1.199E-002,0.000,1.348E-002
 ZoneInfiltration Airflow Stats Nominal, SPACE 114 HVAC ON INFILTRATION,INFILTRATION HVAC ON SCHEDULE,THERMAL ZONE 16,69.56,2.0,2.118E-002,3.045E-004,2.066E-004,0.360,0.107,1.199E-002,0.000,1.348E-002
 ZoneInfiltration Airflow Stats Nominal, SPACE 112 HVAC OFF INFILTRATION,INFILTRATION HVAC OFF SCHEDULE,THERMAL ZONE 17,104.47,3.0,2.637E-002,2.524E-004,2.066E-004,0.298,0.107,1.199E-002,0.000,1.348E-002
 ZoneInfiltration Airflow Stats Nominal, SPACE 112 HVAC ON INFILTRATION,INFILTRATION HVAC ON SCHEDULE,THERMAL ZONE 17,104.47,3.0,2.637E-002,2.524E-004,2.066E-004,0.298,0.107,1.199E-002,0.000,1.348E-002
 ZoneInfiltration Airflow Stats Nominal, SPACE 145 HVAC OFF INFILTRATION,INFILTRATION HVAC OFF SCHEDULE,THERMAL ZONE 18,73.02,0.0,6.360E-002,8.710E-004,2.066E-004,1.029,0.107,1.199E-002,0.000,1.348E-002
 ZoneInfiltration Airflow Stats Nominal, SPACE 145 HVAC ON INFILTRATION,INFILTRATION HVAC ON SCHEDULE,THERMAL ZONE 18,73.02,0.0,6.360E-002,8.710E-004,2.066E-004,1.029,0.107,1.199E-002,0.000,1.348E-002
 ZoneInfiltration Airflow Stats Nominal, SPACE 115 HVAC OFF INFILTRATION,INFILTRATION HVAC OFF SCHEDULE,THERMAL ZONE 19,47.02,1.3,1.730E-002,3.681E-004,2.066E-004,0.435,0.107,1.199E-002,0.000,1.348E-002
 ZoneInfiltration Airflow Stats Nominal, SPACE 115 HVAC ON INFILTRATION,INFILTRATION HVAC ON SCHEDULE,THERMAL ZONE 19,47.02,1.3,1.730E-002,3.681E-004,2.066E-004,0.435,0.107,1.199E-002,0.000,1.348E-002
 ZoneInfiltration Airflow Stats Nominal, SPACE 116 HVAC OFF INFILTRATION,INFILTRATION HVAC OFF SCHEDULE,THERMAL ZONE 2,70.73,2.0,2.127E-002,3.008E-004,2.066E-004,0.355,0.107,1.199E-002,0.000,1.348E-002
 ZoneInfiltration Airflow Stats Nominal, SPACE 116 HVAC ON INFILTRATION,INFILTRATION HVAC ON SCHEDULE,THERMAL ZONE 2,70.73,2.0,2.127E-002,3.008E-004,2.066E-004,0.355,0.107,1.199E-002,0.000,1.348E-002
 ZoneInfiltration Airflow Stats Nominal, SPACE 113 HVAC OFF INFILTRATION,INFILTRATION HVAC OFF SCHEDULE,THERMAL ZONE 20,45.32,1.3,1.699E-002,3.750E-004,2.066E-004,0.443,0.107,1.199E-002,0.000,1.348E-002
 ZoneInfiltration Airflow Stats Nominal, SPACE 113 HVAC ON INFILTRATION,INFILTRATION HVAC ON SCHEDULE,THERMAL ZONE 20,45.32,1.3,1.699E-002,3.750E-004,2.066E-004,0.443,0.107,1.199E-002,0.000,1.348E-002
 ZoneInfiltration Airflow Stats Nominal, SPACE 140 HVAC OFF INFILTRATION,INFILTRATION HVAC OFF SCHEDULE,THERMAL ZONE 21,45.32,1.3,2.636E-002,5.816E-004,2.066E-004,0.687,0.107,1.199E-002,0.000,1.348E-002
 ZoneInfiltration Airflow Stats Nominal, SPACE 140 HVAC ON INFILTRATION,INFILTRATION HVAC ON SCHEDULE,THERMAL ZONE 21,45.32,1.3,2.636E-002,5.816E-004,2.066E-004,0.687,0.107,1.199E-002,0.000,1.348E-002
 ZoneInfiltration Airflow Stats Nominal, SPACE 117 HVAC OFF INFILTRATION,INFILTRATION HVAC OFF SCHEDULE,THERMAL ZONE 22,50.48,1.4,1.793E-002,3.552E-004,2.066E-004,0.420,0.107,1.199E-002,0.000,1.348E-002
 ZoneInfiltration Airflow Stats Nominal, SPACE 117 HVAC ON INFILTRATION,INFILTRATION HVAC ON SCHEDULE,THERMAL ZONE 22,50.48,1.4,1.793E-002,3.552E-004,2.066E-004,0.420,0.107,1.199E-002,0.000,1.348E-002
 ZoneInfiltration Airflow Stats Nominal, SPACE 128 HVAC OFF INFILTRATION,INFILTRATION HVAC OFF SCHEDULE,THERMAL ZONE 23,73.56,2.1,2.171E-002,2.951E-004,2.066E-004,0.349,0.107,1.199E-002,0.000,1.348E-002
 ZoneInfiltration Airflow Stats Nominal, SPACE 128 HVAC ON INFILTRATION,INFILTRATION HVAC ON SCHEDULE,THERMAL ZONE 23,73.56,2.1,2.171E-002,2.951E-004,2.066E-004,0.349,0.107,1.199E-002,0.000,1.348E-002
 ZoneInfiltration Airflow Stats Nominal, SPACE 118 HVAC OFF INFILTRATION,INFILTRATION HVAC OFF SCHEDULE,THERMAL ZONE 24,48.72,1.4,1.760E-002,3.613E-004,2.066E-004,0.427,0.107,1.199E-002,0.000,1.348E-002
 ZoneInfiltration Airflow Stats Nominal, SPACE 118 HVAC ON INFILTRATION,INFILTRATION HVAC ON SCHEDULE,THERMAL ZONE 24,48.72,1.4,1.760E-002,3.613E-004,2.066E-004,0.427,0.107,1.199E-002,0.000,1.348E-002
 ZoneInfiltration Airflow Stats Nominal, SPACE 120 HVAC OFF INFILTRATION,INFILTRATION HVAC OFF SCHEDULE,THERMAL ZONE 25,74.40,2.1,2.178E-002,2.928E-004,2.066E-004,0.346,0.107,1.199E-002,0.000,1.348E-002
 ZoneInfiltration Airflow Stats Nominal, SPACE 120 HVAC ON INFILTRATION,INFILTRATION HVAC ON SCHEDULE,THERMAL ZONE 25,74.40,2.1,2.178E-002,2.928E-004,2.066E-004,0.346,0.107,1.199E-002,0.000,1.348E-002
 ZoneInfiltration Airflow Stats Nominal, SPACE 121 HVAC OFF INFILTRATION,INFILTRATION HVAC OFF SCHEDULE,THERMAL ZONE 26,73.02,0.0,4.851E-002,6.643E-004,2.066E-004,0.785,0.107,1.199E-002,0.000,1.348E-002
 ZoneInfiltration Airflow Stats Nominal, SPACE 121 HVAC ON INFILTRATION,INFILTRATION HVAC ON SCHEDULE,THERMAL ZONE 26,73.02,0.0,4.851E-002,6.643E-004,2.066E-004,0.785,0.107,1.199E-002,0.000,1.348E-002
 ZoneInfiltration Airflow Stats Nominal, SPACE 122 HVAC OFF INFILTRATION,INFILTRATION HVAC OFF SCHEDULE,THERMAL ZONE 27,73.56,2.1,2.171E-002,2.951E-004,2.066E-004,0.349,0.107,1.199E-002,0.000,1.348E-002
 ZoneInfiltration Airflow Stats Nominal, SPACE 122 HVAC ON INFILTRATION,INFILTRATION HVAC ON SCHEDULE,THERMAL ZONE 27,73.56,2.1,2.171E-002,2.951E-004,2.066E-004,0.349,0.107,1.199E-002,0.000,1.348E-002
 ZoneInfiltration Airflow Stats Nominal, SPACE 123 HVAC OFF INFILTRATION,INFILTRATION HVAC OFF SCHEDULE,THERMAL ZONE 28,73.02,0.0,4.851E-002,6.643E-004,2.066E-004,0.785,0.107,1.199E-002,0.000,1.348E-002
 ZoneInfiltration Airflow Stats Nominal, SPACE 123 HVAC ON INFILTRATION,INFILTRATION HVAC ON SCHEDULE,THERMAL ZONE 28,73.02,0.0,4.851E-002,6.643E-004,2.066E-004,0.785,0.107,1.199E-002,0.000,1.348E-002
 ZoneInfiltration Airflow Stats Nominal, SPACE 124 HVAC OFF INFILTRATION,INFILTRATION HVAC OFF SCHEDULE,THERMAL ZONE 29,104.47,3.0,2.637E-002,2.524E-004,2.066E-004,0.298,0.107,1.199E-002,0.000,1.348E-002
 ZoneInfiltration Airflow Stats Nominal, SPACE 124 HVAC ON INFILTRATION,INFILTRATION HVAC ON SCHEDULE,THERMAL ZONE 29,104.47,3.0,2.637E-002,2.524E-004,2.066E-004,0.298,0.107,1.199E-002,0.000,1.348E-002
 ZoneInfiltration Airflow Stats Nominal, SPACE 109 HVAC OFF INFILTRATION,INFILTRATION HVAC OFF SCHEDULE,THERMAL ZONE 3,74.16,2.1,3.709E-002,5.002E-004,2.066E-004,0.591,0.107,1.199E-002,0.000,1.348E-002
 ZoneInfiltration Airflow Stats Nominal, SPACE 109 HVAC ON INFILTRATION,INFILTRATION HVAC ON SCHEDULE,THERMAL ZONE 3,74.16,2.1,3.709E-002,5.002E-004,2.066E-004,0.591,0.107,1.199E-002,0.000,1.348E-002
 ZoneInfiltration Airflow Stats Nominal, SPACE 129 HVAC OFF INFILTRATION,INFILTRATION HVAC OFF SCHEDULE,THERMAL ZONE 30,47.02,1.3,1.730E-002,3.681E-004,2.066E-004,0.435,0.107,1.199E-002,0.000,1.348E-002
 ZoneInfiltration Airflow Stats Nominal, SPACE 129 HVAC ON INFILTRATION,INFILTRATION HVAC ON SCHEDULE,THERMAL ZONE 30,47.02,1.3,1.730E-002,3.681E-004,2.066E-004,0.435,0.107,1.199E-002,0.000,1.348E-002
 ZoneInfiltration Airflow Stats Nominal, SPACE 125 HVAC OFF INFILTRATION,INFILTRATION HVAC OFF SCHEDULE,THERMAL ZONE 31,74.40,2.1,2.178E-002,2.928E-004,2.066E-004,0.346,0.107,1.199E-002,0.000,1.348E-002
 ZoneInfiltration Airflow Stats Nominal, SPACE 125 HVAC ON INFILTRATION,INFILTRATION HVAC ON SCHEDULE,THERMAL ZONE 31,74.40,2.1,2.178E-002,2.928E-004,2.066E-004,0.346,0.107,1.199E-002,0.000,1.348E-002
 ZoneInfiltration Airflow Stats Nominal, SPACE 134 HVAC OFF INFILTRATION,INFILTRATION HVAC OFF SCHEDULE,THERMAL ZONE 32,69.56,2.0,2.118E-002,3.045E-004,2.066E-004,0.360,0.107,1.199E-002,0.000,1.348E-002
 ZoneInfiltration Airflow Stats Nominal, SPACE 134 HVAC ON INFILTRATION,INFILTRATION HVAC ON SCHEDULE,THERMAL ZONE 32,69.56,2.0,2.118E-002,3.045E-004,2.066E-004,0.360,0.107,1.199E-002,0.000,1.348E-002
 ZoneInfiltration Airflow Stats Nominal, SPACE 126 HVAC OFF INFILTRATION,INFILTRATION HVAC OFF SCHEDULE,THERMAL ZONE 33,50.48,1.4,1.793E-002,3.552E-004,2.066E-004,0.420,0.107,1.199E-002,0.000,1.348E-002
 ZoneInfiltration Airflow Stats Nominal, SPACE 126 HVAC ON INFILTRATION,INFILTRATION HVAC ON SCHEDULE,THERMAL ZONE 33,50.48,1.4,1.793E-002,3.552E-004,2.066E-004,0.420,0.107,1.199E-002,0.000,1.348E-002
 ZoneInfiltration Airflow Stats Nominal, SPACE 127 HVAC OFF INFILTRATION,INFILTRATION HVAC OFF SCHEDULE,THERMAL ZONE 34,45.32,1.3,1.699E-002,3.750E-004,2.066E-004,0.443,0.107,1.199E-002,0.000,1.348E-002
 ZoneInfiltration Airflow Stats Nominal, SPACE 127 HVAC ON INFILTRATION,INFILTRATION HVAC ON SCHEDULE,THERMAL ZONE 34,45.32,1.3,1.699E-002,3.750E-004,2.066E-004,0.443,0.107,1.199E-002,0.000,1.348E-002
 ZoneInfiltration Airflow Stats Nominal, SPACE 131 HVAC OFF INFILTRATION,INFILTRATION HVAC OFF SCHEDULE,THERMAL ZONE 35,74.16,2.1,2.177E-002,2.936E-004,2.066E-004,0.347,0.107,1.199E-002,0.000,1.348E-002
 ZoneInfiltration Airflow Stats Nominal, SPACE 131 HVAC ON INFILTRATION,INFILTRATION HVAC ON SCHEDULE,THERMAL ZONE 35,74.16,2.1,2.177E-002,2.936E-004,2.066E-004,0.347,0.107,1.199E-002,0.000,1.348E-002
 ZoneInfiltration Airflow Stats Nominal, SPACE 132 HVAC OFF INFILTRATION,INFILTRATION HVAC OFF SCHEDULE,THERMAL ZONE 36,70.73,2.0,2.127E-002,3.008E-004,2.066E-004,0.355,0.107,1.199E-002,0.000,1.348E-002
 ZoneInfiltration Airflow Stats Nominal, SPACE 132 HVAC ON INFILTRATION,INFILTRATION HVAC ON SCHEDULE,THERMAL ZONE 36,70.73,2.0,2.127E-002,3.008E-004,2.066E-004,0.355,0.107,1.199E-002,0.000,1.348E-002
 ZoneInfiltration Airflow Stats Nominal, SPACE 136 HVAC OFF INFILTRATION,INFILTRATION HVAC OFF SCHEDULE,THERMAL ZONE 37,74.16,2.1,3.709E-002,5.002E-004,2.066E-004,0.591,0.107,1.199E-002,0.000,1.348E-002
 ZoneInfiltration Airflow Stats Nominal, SPACE 136 HVAC ON INFILTRATION,INFILTRATION HVAC ON SCHEDULE,THERMAL ZONE 37,74.16,2.1,3.709E-002,5.002E-004,2.066E-004,0.591,0.107,1.199E-002,0.000,1.348E-002
 ZoneInfiltration Airflow Stats Nominal, SPACE 137 HVAC OFF INFILTRATION,INFILTRATION HVAC OFF SCHEDULE,THERMAL ZONE 38,47.02,1.3,2.702E-002,5.747E-004,2.066E-004,0.679,0.107,1.199E-002,0.000,1.348E-002
 ZoneInfiltration Airflow Stats Nominal, SPACE 137 HVAC ON INFILTRATION,INFILTRATION HVAC ON SCHEDULE,THERMAL ZONE 38,47.02,1.3,2.702E-002,5.747E-004,2.066E-004,0.679,0.107,1.199E-002,0.000,1.348E-002
 ZoneInfiltration Airflow Stats Nominal, SPACE 138 HVAC OFF INFILTRATION,INFILTRATION HVAC OFF SCHEDULE,THERMAL ZONE 39,70.73,2.0,3.589E-002,5.074E-004,2.066E-004,0.599,0.107,1.199E-002,0.000,1.348E-002
 ZoneInfiltration Airflow Stats Nominal, SPACE 138 HVAC ON INFILTRATION,INFILTRATION HVAC ON SCHEDULE,THERMAL ZONE 39,70.73,2.0,3.589E-002,5.074E-004,2.066E-004,0.599,0.107,1.199E-002,0.000,1.348E-002
 ZoneInfiltration Airflow Stats Nominal, SPACE 106 HVAC OFF INFILTRATION,INFILTRATION HVAC OFF SCHEDULE,THERMAL ZONE 4,70.73,2.0,3.589E-002,5.074E-004,2.066E-004,0.599,0.107,1.199E-002,0.000,1.348E-002
 ZoneInfiltration Airflow Stats Nominal, SPACE 106 HVAC ON INFILTRATION,INFILTRATION HVAC ON SCHEDULE,THERMAL ZONE 4,70.73,2.0,3.589E-002,5.074E-004,2.066E-004,0.599,0.107,1.199E-002,0.000,1.348E-002
 ZoneInfiltration Airflow Stats Nominal, SPACE 139 HVAC OFF INFILTRATION,INFILTRATION HVAC OFF SCHEDULE,THERMAL ZONE 40,74.40,2.1,3.716E-002,4.994E-004,2.066E-004,0.590,0.107,1.199E-002,0.000,1.348E-002
 ZoneInfiltration Airflow Stats Nominal, SPACE 139 HVAC ON INFILTRATION,INFILTRATION HVAC ON SCHEDULE,THERMAL ZONE 40,74.40,2.1,3.716E-002,4.994E-004,2.066E-004,0.590,0.107,1.199E-002,0.000,1.348E-002
 ZoneInfiltration Airflow Stats Nominal, SPACE 141 HVAC OFF INFILTRATION,INFILTRATION HVAC OFF SCHEDULE,THERMAL ZONE 41,50.48,1.4,2.836E-002,5.619E-004,2.066E-004,0.664,0.107,1.199E-002,0.000,1.348E-002
 ZoneInfiltration Airflow Stats Nominal, SPACE 141 HVAC ON INFILTRATION,INFILTRATION HVAC ON SCHEDULE,THERMAL ZONE 41,50.48,1.4,2.836E-002,5.619E-004,2.066E-004,0.664,0.107,1.199E-002,0.000,1.348E-002
 ZoneInfiltration Airflow Stats Nominal, SPACE 142 HVAC OFF INFILTRATION,INFILTRATION HVAC OFF SCHEDULE,THERMAL ZONE 42,48.72,1.4,2.767E-002,5.680E-004,2.066E-004,0.671,0.107,1.199E-002,0.000,1.348E-002
 ZoneInfiltration Airflow Stats Nominal, SPACE 142 HVAC ON INFILTRATION,INFILTRATION HVAC ON SCHEDULE,THERMAL ZONE 42,48.72,1.4,2.767E-002,5.680E-004,2.066E-004,0.671,0.107,1.199E-002,0.000,1.348E-002
 ZoneInfiltration Airflow Stats Nominal, SPACE 143 HVAC OFF INFILTRATION,INFILTRATION HVAC OFF SCHEDULE,THERMAL ZONE 43,104.47,3.0,4.795E-002,4.590E-004,2.066E-004,0.542,0.107,1.199E-002,0.000,1.348E-002
 ZoneInfiltration Airflow Stats Nominal, SPACE 143 HVAC ON INFILTRATION,INFILTRATION HVAC ON SCHEDULE,THERMAL ZONE 43,104.47,3.0,4.795E-002,4.590E-004,2.066E-004,0.542,0.107,1.199E-002,0.000,1.348E-002
 ZoneInfiltration Airflow Stats Nominal, SPACE 144 HVAC OFF INFILTRATION,INFILTRATION HVAC OFF SCHEDULE,THERMAL ZONE 44,73.56,2.1,3.691E-002,5.018E-004,2.066E-004,0.593,0.107,1.199E-002,0.000,1.348E-002
 ZoneInfiltration Airflow Stats Nominal, SPACE 144 HVAC ON INFILTRATION,INFILTRATION HVAC ON SCHEDULE,THERMAL ZONE 44,73.56,2.1,3.691E-002,5.018E-004,2.066E-004,0.593,0.107,1.199E-002,0.000,1.348E-002
 ZoneInfiltration Airflow Stats Nominal, SPACE 102 HVAC OFF INFILTRATION,INFILTRATION HVAC OFF SCHEDULE,THERMAL ZONE 5,146.05,4.1,0.127,8.710E-004,2.066E-004,1.029,0.107,1.199E-002,0.000,1.348E-002
 ZoneInfiltration Airflow Stats Nominal, SPACE 102 HVAC ON INFILTRATION,INFILTRATION HVAC ON SCHEDULE,THERMAL ZONE 5,146.05,4.1,0.127,8.710E-004,2.066E-004,1.029,0.107,1.199E-002,0.000,1.348E-002
 ZoneInfiltration Airflow Stats Nominal, SPACE 130 HVAC OFF INFILTRATION,INFILTRATION HVAC OFF SCHEDULE,THERMAL ZONE 6,48.72,1.4,1.760E-002,3.613E-004,2.066E-004,0.427,0.107,1.199E-002,0.000,1.348E-002
 ZoneInfiltration Airflow Stats Nominal, SPACE 130 HVAC ON INFILTRATION,INFILTRATION HVAC ON SCHEDULE,THERMAL ZONE 6,48.72,1.4,1.760E-002,3.613E-004,2.066E-004,0.427,0.107,1.199E-002,0.000,1.348E-002
 ZoneInfiltration Airflow Stats Nominal, SPACE 103 HVAC OFF INFILTRATION,INFILTRATION HVAC OFF SCHEDULE,THERMAL ZONE 7,69.56,2.0,3.556E-002,5.112E-004,2.066E-004,0.604,0.107,1.199E-002,0.000,1.348E-002
 ZoneInfiltration Airflow Stats Nominal, SPACE 103 HVAC ON INFILTRATION,INFILTRATION HVAC ON SCHEDULE,THERMAL ZONE 7,69.56,2.0,3.556E-002,5.112E-004,2.066E-004,0.604,0.107,1.199E-002,0.000,1.348E-002
 ZoneInfiltration Airflow Stats Nominal, SPACE 107 HVAC OFF INFILTRATION,INFILTRATION HVAC OFF SCHEDULE,THERMAL ZONE 8,74.40,2.1,3.716E-002,4.994E-004,2.066E-004,0.590,0.107,1.199E-002,0.000,1.348E-002
 ZoneInfiltration Airflow Stats Nominal, SPACE 107 HVAC ON INFILTRATION,INFILTRATION HVAC ON SCHEDULE,THERMAL ZONE 8,74.40,2.1,3.716E-002,4.994E-004,2.066E-004,0.590,0.107,1.199E-002,0.000,1.348E-002
 ZoneInfiltration Airflow Stats Nominal, SPACE 104 HVAC OFF INFILTRATION,INFILTRATION HVAC OFF SCHEDULE,THERMAL ZONE 9,45.32,1.3,2.636E-002,5.816E-004,2.066E-004,0.687,0.107,1.199E-002,0.000,1.348E-002
 ZoneInfiltration Airflow Stats Nominal, SPACE 104 HVAC ON INFILTRATION,INFILTRATION HVAC ON SCHEDULE,THERMAL ZONE 9,45.32,1.3,2.636E-002,5.816E-004,2.066E-004,0.687,0.107,1.199E-002,0.000,1.348E-002
! <AirFlow Model>, Simple
 AirFlow Model, Simple
! <RoomAir Model>, Zone Name, Mixing/Mundt/UCSDDV/UCSDCV/UCSDUFI/UCSDUFE/User Defined
RoomAir Model,THERMAL ZONE 1,Mixing/Well-Stirred
RoomAir Model,THERMAL ZONE 10,Mixing/Well-Stirred
RoomAir Model,THERMAL ZONE 11,Mixing/Well-Stirred
RoomAir Model,THERMAL ZONE 12,Mixing/Well-Stirred
RoomAir Model,THERMAL ZONE 13,Mixing/Well-Stirred
RoomAir Model,THERMAL ZONE 14,Mixing/Well-Stirred
RoomAir Model,THERMAL ZONE 15,Mixing/Well-Stirred
RoomAir Model,THERMAL ZONE 16,Mixing/Well-Stirred
RoomAir Model,THERMAL ZONE 17,Mixing/Well-Stirred
RoomAir Model,THERMAL ZONE 18,Mixing/Well-Stirred
RoomAir Model,THERMAL ZONE 19,Mixing/Well-Stirred
RoomAir Model,THERMAL ZONE 2,Mixing/Well-Stirred
RoomAir Model,THERMAL ZONE 20,Mixing/Well-Stirred
RoomAir Model,THERMAL ZONE 21,Mixing/Well-Stirred
RoomAir Model,THERMAL ZONE 22,Mixing/Well-Stirred
RoomAir Model,THERMAL ZONE 23,Mixing/Well-Stirred
RoomAir Model,THERMAL ZONE 24,Mixing/Well-Stirred
RoomAir Model,THERMAL ZONE 25,Mixing/Well-Stirred
RoomAir Model,THERMAL ZONE 26,Mixing/Well-Stirred
RoomAir Model,THERMAL ZONE 27,Mixing/Well-Stirred
RoomAir Model,THERMAL ZONE 28,Mixing/Well-Stirred
RoomAir Model,THERMAL ZONE 29,Mixing/Well-Stirred
RoomAir Model,THERMAL ZONE 3,Mixing/Well-Stirred
RoomAir Model,THERMAL ZONE 30,Mixing/Well-Stirred
RoomAir Model,THERMAL ZONE 31,Mixing/Well-Stirred
RoomAir Model,THERMAL ZONE 32,Mixing/Well-Stirred
RoomAir Model,THERMAL ZONE 33,Mixing/Well-Stirred
RoomAir Model,THERMAL ZONE 34,Mixing/Well-Stirred
RoomAir Model,THERMAL ZONE 35,Mixing/Well-Stirred
RoomAir Model,THERMAL ZONE 36,Mixing/Well-Stirred
RoomAir Model,THERMAL ZONE 37,Mixing/Well-Stirred
RoomAir Model,THERMAL ZONE 38,Mixing/Well-Stirred
RoomAir Model,THERMAL ZONE 39,Mixing/Well-Stirred
RoomAir Model,THERMAL ZONE 4,Mixing/Well-Stirred
RoomAir Model,THERMAL ZONE 40,Mixing/Well-Stirred
RoomAir Model,THERMAL ZONE 41,Mixing/Well-Stirred
RoomAir Model,THERMAL ZONE 42,Mixing/Well-Stirred
RoomAir Model,THERMAL ZONE 43,Mixing/Well-Stirred
RoomAir Model,THERMAL ZONE 44,Mixing/Well-Stirred
RoomAir Model,THERMAL ZONE 5,Mixing/Well-Stirred
RoomAir Model,THERMAL ZONE 6,Mixing/Well-Stirred
RoomAir Model,THERMAL ZONE 7,Mixing/Well-Stirred
RoomAir Model,THERMAL ZONE 8,Mixing/Well-Stirred
RoomAir Model,THERMAL ZONE 9,Mixing/Well-Stirred
! <AirflowNetwork Model:Control>, No Multizone or Distribution/Multizone with Distribution/Multizone without Distribution/Multizone with Distribution only during Fan Operation
AirflowNetwork Model:Control,NoMultizoneOrDistribution
! <Zone Volume Capacitance Multiplier>, Sensible Heat Capacity Multiplier, Moisture Capacity Multiplier, Carbon Dioxide Capacity Multiplier, Generic Contaminant Capacity Multiplier
Zone Volume Capacitance Multiplier,   1.000 ,   1.000,   1.000,   1.000
! <Load Timesteps in Zone Design Calculation Averaging Window>, Value
 Load Timesteps in Zone Design Calculation Averaging Window,    6
! <Heating Sizing Factor Information>, Sizing Factor ID, Value
 Heating Sizing Factor Information, Global,   1.2500    
 Heating Sizing Factor Information, Zone THERMAL ZONE 1,   1.2500    
 Heating Sizing Factor Information, Zone THERMAL ZONE 10,   1.2500    
 Heating Sizing Factor Information, Zone THERMAL ZONE 11,   1.2500    
 Heating Sizing Factor Information, Zone THERMAL ZONE 12,   1.2500    
 Heating Sizing Factor Information, Zone THERMAL ZONE 13,   1.2500    
 Heating Sizing Factor Information, Zone THERMAL ZONE 14,   1.2500    
 Heating Sizing Factor Information, Zone THERMAL ZONE 15,   1.2500    
 Heating Sizing Factor Information, Zone THERMAL ZONE 16,   1.2500    
 Heating Sizing Factor Information, Zone THERMAL ZONE 17,   1.2500    
 Heating Sizing Factor Information, Zone THERMAL ZONE 18,   1.2500    
 Heating Sizing Factor Information, Zone THERMAL ZONE 19,   1.2500    
 Heating Sizing Factor Information, Zone THERMAL ZONE 2,   1.2500    
 Heating Sizing Factor Information, Zone THERMAL ZONE 20,   1.2500    
 Heating Sizing Factor Information, Zone THERMAL ZONE 21,   1.2500    
 Heating Sizing Factor Information, Zone THERMAL ZONE 22,   1.2500    
 Heating Sizing Factor Information, Zone THERMAL ZONE 23,   1.2500    
 Heating Sizing Factor Information, Zone THERMAL ZONE 24,   1.2500    
 Heating Sizing Factor Information, Zone THERMAL ZONE 25,   1.2500    
 Heating Sizing Factor Information, Zone THERMAL ZONE 26,   1.2500    
 Heating Sizing Factor Information, Zone THERMAL ZONE 27,   1.2500    
 Heating Sizing Factor Information, Zone THERMAL ZONE 28,   1.2500    
 Heating Sizing Factor Information, Zone THERMAL ZONE 29,   1.2500    
 Heating Sizing Factor Information, Zone THERMAL ZONE 3,   1.2500    
 Heating Sizing Factor Information, Zone THERMAL ZONE 30,   1.2500    
 Heating Sizing Factor Information, Zone THERMAL ZONE 31,   1.2500    
 Heating Sizing Factor Information, Zone THERMAL ZONE 32,   1.2500    
 Heating Sizing Factor Information, Zone THERMAL ZONE 33,   1.2500    
 Heating Sizing Factor Information, Zone THERMAL ZONE 34,   1.2500    
 Heating Sizing Factor Information, Zone THERMAL ZONE 35,   1.2500    
 Heating Sizing Factor Information, Zone THERMAL ZONE 36,   1.2500    
 Heating Sizing Factor Information, Zone THERMAL ZONE 37,   1.2500    
 Heating Sizing Factor Information, Zone THERMAL ZONE 38,   1.2500    
 Heating Sizing Factor Information, Zone THERMAL ZONE 39,   1.2500    
 Heating Sizing Factor Information, Zone THERMAL ZONE 4,   1.2500    
 Heating Sizing Factor Information, Zone THERMAL ZONE 40,   1.2500    
 Heating Sizing Factor Information, Zone THERMAL ZONE 41,   1.2500    
 Heating Sizing Factor Information, Zone THERMAL ZONE 42,   1.2500    
 Heating Sizing Factor Information, Zone THERMAL ZONE 43,   1.2500    
 Heating Sizing Factor Information, Zone THERMAL ZONE 44,   1.2500    
 Heating Sizing Factor Information, Zone THERMAL ZONE 5,   1.2500    
 Heating Sizing Factor Information, Zone THERMAL ZONE 6,   1.2500    
 Heating Sizing Factor Information, Zone THERMAL ZONE 7,   1.2500    
 Heating Sizing Factor Information, Zone THERMAL ZONE 8,   1.2500    
 Heating Sizing Factor Information, Zone THERMAL ZONE 9,   1.2500    
! <Cooling Sizing Factor Information>, Sizing Factor ID, Value
 Cooling Sizing Factor Information, Global,   1.1500    
 Cooling Sizing Factor Information, Zone THERMAL ZONE 1,   1.1500    
 Cooling Sizing Factor Information, Zone THERMAL ZONE 10,   1.1500    
 Cooling Sizing Factor Information, Zone THERMAL ZONE 11,   1.1500    
 Cooling Sizing Factor Information, Zone THERMAL ZONE 12,   1.1500    
 Cooling Sizing Factor Information, Zone THERMAL ZONE 13,   1.1500    
 Cooling Sizing Factor Information, Zone THERMAL ZONE 14,   1.1500    
 Cooling Sizing Factor Information, Zone THERMAL ZONE 15,   1.1500    
 Cooling Sizing Factor Information, Zone THERMAL ZONE 16,   1.1500    
 Cooling Sizing Factor Information, Zone THERMAL ZONE 17,   1.1500    
 Cooling Sizing Factor Information, Zone THERMAL ZONE 18,   1.1500    
 Cooling Sizing Factor Information, Zone THERMAL ZONE 19,   1.1500    
 Cooling Sizing Factor Information, Zone THERMAL ZONE 2,   1.1500    
 Cooling Sizing Factor Information, Zone THERMAL ZONE 20,   1.1500    
 Cooling Sizing Factor Information, Zone THERMAL ZONE 21,   1.1500    
 Cooling Sizing Factor Information, Zone THERMAL ZONE 22,   1.1500    
 Cooling Sizing Factor Information, Zone THERMAL ZONE 23,   1.1500    
 Cooling Sizing Factor Information, Zone THERMAL ZONE 24,   1.1500    
 Cooling Sizing Factor Information, Zone THERMAL ZONE 25,   1.1500    
 Cooling Sizing Factor Information, Zone THERMAL ZONE 26,   1.1500    
 Cooling Sizing Factor Information, Zone THERMAL ZONE 27,   1.1500    
 Cooling Sizing Factor Information, Zone THERMAL ZONE 28,   1.1500    
 Cooling Sizing Factor Information, Zone THERMAL ZONE 29,   1.1500    
 Cooling Sizing Factor Information, Zone THERMAL ZONE 3,   1.1500    
 Cooling Sizing Factor Information, Zone THERMAL ZONE 30,   1.1500    
 Cooling Sizing Factor Information, Zone THERMAL ZONE 31,   1.1500    
 Cooling Sizing Factor Information, Zone THERMAL ZONE 32,   1.1500    
 Cooling Sizing Factor Information, Zone THERMAL ZONE 33,   1.1500    
 Cooling Sizing Factor Information, Zone THERMAL ZONE 34,   1.1500    
 Cooling Sizing Factor Information, Zone THERMAL ZONE 35,   1.1500    
 Cooling Sizing Factor Information, Zone THERMAL ZONE 36,   1.1500    
 Cooling Sizing Factor Information, Zone THERMAL ZONE 37,   1.1500    
 Cooling Sizing Factor Information, Zone THERMAL ZONE 38,   1.1500    
 Cooling Sizing Factor Information, Zone THERMAL ZONE 39,   1.1500    
 Cooling Sizing Factor Information, Zone THERMAL ZONE 4,   1.1500    
 Cooling Sizing Factor Information, Zone THERMAL ZONE 40,   1.1500    
 Cooling Sizing Factor Information, Zone THERMAL ZONE 41,   1.1500    
 Cooling Sizing Factor Information, Zone THERMAL ZONE 42,   1.1500    
 Cooling Sizing Factor Information, Zone THERMAL ZONE 43,   1.1500    
 Cooling Sizing Factor Information, Zone THERMAL ZONE 44,   1.1500    
 Cooling Sizing Factor Information, Zone THERMAL ZONE 5,   1.1500    
 Cooling Sizing Factor Information, Zone THERMAL ZONE 6,   1.1500    
 Cooling Sizing Factor Information, Zone THERMAL ZONE 7,   1.1500    
 Cooling Sizing Factor Information, Zone THERMAL ZONE 8,   1.1500    
 Cooling Sizing Factor Information, Zone THERMAL ZONE 9,   1.1500    
! <Zone Sizing Information>, Zone Name, Load Type, Calc Des Load {W}, User Des Load {W}, Calc Des Air Flow Rate {m3/s}, User Des Air Flow Rate {m3/s}, Design Day Name, Date/Time of Peak, Temperature at Peak {C}, Humidity Ratio at Peak {kgWater/kgDryAir}, Floor Area {m2}, # Occupants, Calc Outdoor Air Flow Rate {m3/s}, Calc DOAS Heat Addition Rate {W}
 Zone Sizing Information, THERMAL ZONE 1, Cooling, 2600.11348, 2990.13050, 0.19314, 0.22211, MONTREAL INT'L ANN CLG .4% CONDNS DB=>MWB, 7/21 15:00:00, 30.00000, 1.35628E-002, 50.47716, 0.00000, 0.00000, 0.00000
 Zone Sizing Information, THERMAL ZONE 1, Heating, 6477.03716, 8096.29645, 0.27712, 0.34640, MONTREAL INT'L ANN HTG 99.6% CONDNS DB, 1/21 08:00:00, -23.70000, 4.44277E-004, 50.47716, 0.00000, 0.00000, 0.00000
 Zone Sizing Information, THERMAL ZONE 10, Cooling, 4152.83046, 4775.75503, 0.30850, 0.35478, MONTREAL INT'L ANN CLG .4% CONDNS DB=>MWB, 7/21 15:40:00, 29.62800, 1.35621E-002, 69.55768, 1.96911, 5.90734E-003, 0.00000
 Zone Sizing Information, THERMAL ZONE 10, Heating, 8903.64221, 11129.55276, 0.38093, 0.47616, MONTREAL INT'L ANN HTG 99.6% CONDNS DB, 1/21 08:00:00, -23.70000, 4.44277E-004, 69.55768, 1.96911, 5.90734E-003, 0.00000
 Zone Sizing Information, THERMAL ZONE 11, Cooling, 2242.23126, 2578.56595, 0.18147, 0.20869, MONTREAL INT'L ANN CLG .4% CONDNS DB=>MWB, 7/21 18:00:00, 27.76800, 1.35588E-002, 47.01627, 1.33099, 3.99296E-003, 0.00000
 Zone Sizing Information, THERMAL ZONE 11, Heating, 6052.61141, 7565.76426, 0.25897, 0.32371, MONTREAL INT'L ANN HTG 99.6% CONDNS DB, 1/21 08:00:00, -23.70000, 4.44277E-004, 47.01627, 1.33099, 3.99296E-003, 0.00000
 Zone Sizing Information, THERMAL ZONE 12, Cooling, 3532.43417, 4062.29930, 0.26240, 0.30176, MONTREAL INT'L ANN CLG .4% CONDNS DB=>MWB, 7/21 13:50:00, 29.92250, 1.35626E-002, 104.46703, 2.95737, 8.87210E-003, 0.00000
 Zone Sizing Information, THERMAL ZONE 12, Heating, 10053.24564, 12566.55705, 0.42979, 0.53724, MONTREAL INT'L ANN HTG 99.6% CONDNS DB, 1/21 08:00:00, -23.70000, 4.44277E-004, 104.46703, 2.95737, 8.87210E-003, 0.00000
 Zone Sizing Information, THERMAL ZONE 13, Cooling, 3152.11246, 3624.92933, 0.25504, 0.29330, MONTREAL INT'L ANN CLG .4% CONDNS DB=>MWB, 7/21 18:00:00, 27.76800, 1.35588E-002, 74.15808, 2.09935, 6.29804E-003, 0.00000
 Zone Sizing Information, THERMAL ZONE 13, Heating, 6402.18852, 8002.73565, 0.27362, 0.34202, MONTREAL INT'L ANN HTG 99.6% CONDNS DB, 1/21 08:00:00, -23.70000, 4.44277E-004, 74.15808, 2.09935, 6.29804E-003, 0.00000
 Zone Sizing Information, THERMAL ZONE 14, Cooling, 2673.01245, 3073.96432, 0.19856, 0.22834, MONTREAL INT'L ANN CLG .4% CONDNS DB=>MWB, 7/21 13:40:00, 29.84500, 1.35625E-002, 73.56027, 2.08242, 6.24727E-003, 0.00000
 Zone Sizing Information, THERMAL ZONE 14, Heating, 7832.22297, 9790.27872, 0.33494, 0.41868, MONTREAL INT'L ANN HTG 99.6% CONDNS DB, 1/21 08:00:00, -23.70000, 4.44277E-004, 73.56027, 2.08242, 6.24727E-003, 0.00000
 Zone Sizing Information, THERMAL ZONE 15, Cooling, 1897.99611, 2182.69553, 0.14099, 0.16214, MONTREAL INT'L ANN CLG .4% CONDNS DB=>MWB, 7/21 13:20:00, 29.69000, 1.35622E-002, 48.71690, 1.37913, 4.13739E-003, 0.00000
 Zone Sizing Information, THERMAL ZONE 15, Heating, 6167.04300, 7708.80374, 0.26385, 0.32982, MONTREAL INT'L ANN HTG 99.6% CONDNS DB, 1/21 08:00:00, -23.70000, 4.44277E-004, 48.71690, 1.37913, 4.13739E-003, 0.00000
 Zone Sizing Information, THERMAL ZONE 16, Cooling, 2771.59566, 3187.33501, 0.20588, 0.23676, MONTREAL INT'L ANN CLG .4% CONDNS DB=>MWB, 7/21 15:40:00, 29.62800, 1.35621E-002, 69.55768, 1.96911, 5.90734E-003, 0.00000
 Zone Sizing Information, THERMAL ZONE 16, Heating, 6229.43043, 7786.78804, 0.26627, 0.33284, MONTREAL INT'L ANN HTG 99.6% CONDNS DB, 1/21 08:00:00, -23.70000, 4.44277E-004, 69.55768, 1.96911, 5.90734E-003, 0.00000
 Zone Sizing Information, THERMAL ZONE 17, Cooling, 3341.73962, 3843.00056, 0.24823, 0.28546, MONTREAL INT'L ANN CLG .4% CONDNS DB=>MWB, 7/21 15:50:00, 29.53500, 1.35619E-002, 104.46703, 2.95737, 8.87210E-003, 0.00000
 Zone Sizing Information, THERMAL ZONE 17, Heating, 7908.47124, 9885.58905, 0.33782, 0.42228, MONTREAL INT'L ANN HTG 99.6% CONDNS DB, 1/21 08:00:00, -23.70000, 4.44277E-004, 104.46703, 2.95737, 8.87210E-003, 0.00000
 Zone Sizing Information, THERMAL ZONE 18, Cooling, 9830.19552, 11304.72485, 0.78500, 0.90275, MONTREAL INT'L ANN CLG .4% CONDNS DB=>MWB, 7/21 17:50:00, 27.92300, 1.35591E-002, 73.02330, 0.00000, 0.00000, 0.00000
 Zone Sizing Information, THERMAL ZONE 18, Heating, 17006.06553, 21257.58192, 0.72826, 0.91032, MONTREAL INT'L ANN HTG 99.6% CONDNS DB, 1/21 08:00:00, -23.70000, 4.44277E-004, 73.02330, 0.00000, 0.00000, 0.00000
 Zone Sizing Information, THERMAL ZONE 19, Cooling, 2290.87394, 2634.50503, 0.18543, 0.21325, MONTREAL INT'L ANN CLG .4% CONDNS DB=>MWB, 7/21 18:00:00, 27.76800, 1.35588E-002, 47.01627, 1.33099, 3.99296E-003, 0.00000
 Zone Sizing Information, THERMAL ZONE 19, Heating, 5102.66365, 6378.32956, 0.21824, 0.27280, MONTREAL INT'L ANN HTG 99.6% CONDNS DB, 1/21 08:00:00, -23.70000, 4.44277E-004, 47.01627, 1.33099, 3.99296E-003, 0.00000
 Zone Sizing Information, THERMAL ZONE 2, Cooling, 3251.19722, 3738.87680, 0.26312, 0.30259, MONTREAL INT'L ANN CLG .4% CONDNS DB=>MWB, 7/21 18:00:00, 27.76800, 1.35588E-002, 70.73295, 2.00239, 6.00716E-003, 0.00000
 Zone Sizing Information, THERMAL ZONE 2, Heating, 6266.53951, 7833.17439, 0.26785, 0.33481, MONTREAL INT'L ANN HTG 99.6% CONDNS DB, 1/21 08:00:00, -23.70000, 4.44277E-004, 70.73295, 2.00239, 6.00716E-003, 0.00000
 Zone Sizing Information, THERMAL ZONE 20, Cooling, 2611.13445, 3002.80462, 0.21143, 0.24314, MONTREAL INT'L ANN CLG .4% CONDNS DB=>MWB, 7/21 18:00:00, 27.76800, 1.35588E-002, 45.32136, 1.28301, 3.84902E-003, 0.00000
 Zone Sizing Information, THERMAL ZONE 20, Heating, 5047.32196, 6309.15245, 0.21589, 0.26986, MONTREAL INT'L ANN HTG 99.6% CONDNS DB, 1/21 08:00:00, -23.70000, 4.44277E-004, 45.32136, 1.28301, 3.84902E-003, 0.00000
 Zone Sizing Information, THERMAL ZONE 21, Cooling, 3538.46447, 4069.23414, 0.27836, 0.32011, MONTREAL INT'L ANN CLG .4% CONDNS DB=>MWB, 7/21 17:40:00, 28.07800, 1.35593E-002, 45.32136, 1.28301, 3.84902E-003, 0.00000
 Zone Sizing Information, THERMAL ZONE 21, Heating, 7004.84205, 8756.05256, 0.29981, 0.37477, MONTREAL INT'L ANN HTG 99.6% CONDNS DB, 1/21 08:00:00, -23.70000, 4.44277E-004, 45.32136, 1.28301, 3.84902E-003, 0.00000
 Zone Sizing Information, THERMAL ZONE 22, Cooling, 2570.29934, 2955.84424, 0.19093, 0.21957, MONTREAL INT'L ANN CLG .4% CONDNS DB=>MWB, 7/21 15:50:00, 29.53500, 1.35619E-002, 50.47716, 1.42896, 4.28689E-003, 0.00000
 Zone Sizing Information, THERMAL ZONE 22, Heating, 5337.58306, 6671.97882, 0.22827, 0.28534, MONTREAL INT'L ANN HTG 99.6% CONDNS DB, 1/21 08:00:00, -23.70000, 4.44277E-004, 50.47716, 1.42896, 4.28689E-003, 0.00000
 Zone Sizing Information, THERMAL ZONE 23, Cooling, 37839.62323, 43515.56672, 2.81082, 3.23245, MONTREAL INT'L ANN CLG .4% CONDNS DB=>MWB, 7/21 16:00:00, 29.44200, 1.35618E-002, 73.56027, 2.08242, 6.24727E-002, 0.00000
 Zone Sizing Information, THERMAL ZONE 23, Heating, 71675.67240, 89594.59050, 3.06454, 3.83067, MONTREAL INT'L ANN HTG 99.6% CONDNS DB, 1/21 08:00:00, -23.70000, 4.44277E-004, 73.56027, 2.08242, 6.24727E-002, 0.00000
 Zone Sizing Information, THERMAL ZONE 24, Cooling, 2008.97297, 2310.31892, 0.14923, 0.17162, MONTREAL INT'L ANN CLG .4% CONDNS DB=>MWB, 7/21 15:50:00, 29.53500, 1.35619E-002, 48.71690, 1.37913, 4.13739E-003, 0.00000
 Zone Sizing Information, THERMAL ZONE 24, Heating, 5186.19288, 6482.74110, 0.22180, 0.27725, MONTREAL INT'L ANN HTG 99.6% CONDNS DB, 1/21 08:00:00, -23.70000, 4.44277E-004, 48.71690, 1.37913, 4.13739E-003, 0.00000
 Zone Sizing Information, THERMAL ZONE 25, Cooling, 3249.26903, 3736.65939, 0.26292, 0.30236, MONTREAL INT'L ANN CLG .4% CONDNS DB=>MWB, 7/21 18:00:00, 27.76800, 1.35588E-002, 74.39912, 2.10617, 6.31851E-003, 0.00000
 Zone Sizing Information, THERMAL ZONE 25, Heating, 6351.92328, 7939.90410, 0.27146, 0.33933, MONTREAL INT'L ANN HTG 99.6% CONDNS DB, 1/21 08:00:00, -23.70000, 4.44277E-004, 74.39912, 2.10617, 6.31851E-003, 0.00000
 Zone Sizing Information, THERMAL ZONE 26, Cooling, 7770.66218, 8936.26151, 0.62966, 0.72411, MONTREAL INT'L ANN CLG .4% CONDNS DB=>MWB, 7/21 18:00:00, 27.76800, 1.35588E-002, 73.02330, 0.00000, 0.00000, 0.00000
 Zone Sizing Information, THERMAL ZONE 26, Heating, 13562.22768, 16952.78460, 0.58068, 0.72585, MONTREAL INT'L ANN HTG 99.6% CONDNS DB, 1/21 08:00:00, -23.70000, 4.44277E-004, 73.02330, 0.00000, 0.00000, 0.00000
 Zone Sizing Information, THERMAL ZONE 27, Cooling, 2702.75587, 3108.16925, 0.20076, 0.23088, MONTREAL INT'L ANN CLG .4% CONDNS DB=>MWB, 7/21 16:00:00, 29.44200, 1.35618E-002, 73.56027, 2.08242, 6.24727E-003, 0.00000
 Zone Sizing Information, THERMAL ZONE 27, Heating, 6371.03268, 7963.79085, 0.27229, 0.34036, MONTREAL INT'L ANN HTG 99.6% CONDNS DB, 1/21 08:00:00, -23.70000, 4.44277E-004, 73.56027, 2.08242, 6.24727E-003, 0.00000
 Zone Sizing Information, THERMAL ZONE 28, Cooling, 95634.83941, 109980.06533, 7.63794, 8.78364, MONTREAL INT'L ANN CLG .4% CONDNS DB=>MWB, 7/21 17:50:00, 27.92300, 1.35591E-002, 73.02330, 0.00000, 0.00000, 0.00000
 Zone Sizing Information, THERMAL ZONE 28, Heating, 150059.19573, 187573.99466, 6.42570, 8.03213, MONTREAL INT'L ANN HTG 99.6% CONDNS DB, 1/21 08:00:00, -23.70000, 4.44277E-004, 73.02330, 0.00000, 0.00000, 0.00000
 Zone Sizing Information, THERMAL ZONE 29, Cooling, 46332.10605, 53281.92196, 3.44164, 3.95789, MONTREAL INT'L ANN CLG .4% CONDNS DB=>MWB, 7/21 15:50:00, 29.53500, 1.35619E-002, 104.46703, 2.95737, 8.87210E-002, 0.00000
 Zone Sizing Information, THERMAL ZONE 29, Heating, 88951.63529, 111189.54411, 3.80142, 4.75177, MONTREAL INT'L ANN HTG 99.6% CONDNS DB, 1/21 08:00:00, -23.70000, 4.44277E-004, 104.46703, 2.95737, 8.87210E-002, 0.00000
 Zone Sizing Information, THERMAL ZONE 3, Cooling, 31434.90107, 36150.13623, 2.54319, 2.92466, MONTREAL INT'L ANN CLG .4% CONDNS DB=>MWB, 7/21 18:00:00, 27.76800, 1.35588E-002, 74.15808, 2.09935, 6.29804E-002, 0.00000
 Zone Sizing Information, THERMAL ZONE 3, Heating, 78840.11587, 98550.14484, 3.37158, 4.21447, MONTREAL INT'L ANN HTG 99.6% CONDNS DB, 1/21 08:00:00, -23.70000, 4.44277E-004, 74.15808, 2.09935, 6.29804E-002, 0.00000
 Zone Sizing Information, THERMAL ZONE 30, Cooling, 32705.19894, 37610.97878, 2.64891, 3.04625, MONTREAL INT'L ANN CLG .4% CONDNS DB=>MWB, 7/21 18:00:00, 27.76800, 1.35588E-002, 47.01627, 1.33099, 3.99296E-002, 0.00000
 Zone Sizing Information, THERMAL ZONE 30, Heating, 57353.90110, 71692.37638, 2.45376, 3.06720, MONTREAL INT'L ANN HTG 99.6% CONDNS DB, 1/21 08:00:00, -23.70000, 4.44277E-004, 47.01627, 1.33099, 3.99296E-002, 0.00000
 Zone Sizing Information, THERMAL ZONE 31, Cooling, 43480.64076, 50002.73687, 3.52064, 4.04874, MONTREAL INT'L ANN CLG .4% CONDNS DB=>MWB, 7/21 18:00:00, 27.76800, 1.35588E-002, 74.39912, 2.10617, 6.31851E-002, 0.00000
 Zone Sizing Information, THERMAL ZONE 31, Heating, 71390.24255, 89237.80319, 3.05218, 3.81522, MONTREAL INT'L ANN HTG 99.6% CONDNS DB, 1/21 08:00:00, -23.70000, 4.44277E-004, 74.39912, 2.10617, 6.31851E-002, 0.00000
 Zone Sizing Information, THERMAL ZONE 32, Cooling, 37489.92295, 43113.41139, 2.78485, 3.20258, MONTREAL INT'L ANN CLG .4% CONDNS DB=>MWB, 7/21 15:40:00, 29.62800, 1.35621E-002, 69.55768, 1.96911, 5.90734E-002, 0.00000
 Zone Sizing Information, THERMAL ZONE 32, Heating, 69764.72472, 87205.90590, 2.98311, 3.72888, MONTREAL INT'L ANN HTG 99.6% CONDNS DB, 1/21 08:00:00, -23.70000, 4.44277E-004, 69.55768, 1.96911, 5.90734E-002, 0.00000
 Zone Sizing Information, THERMAL ZONE 33, Cooling, 33883.79479, 38966.36401, 2.51699, 2.89454, MONTREAL INT'L ANN CLG .4% CONDNS DB=>MWB, 7/21 16:00:00, 29.44200, 1.35618E-002, 50.47716, 1.42896, 4.28689E-002, 0.00000
 Zone Sizing Information, THERMAL ZONE 33, Heating, 59544.78944, 74430.98680, 2.54728, 3.18409, MONTREAL INT'L ANN HTG 99.6% CONDNS DB, 1/21 08:00:00, -23.70000, 4.44277E-004, 50.47716, 1.42896, 4.28689E-002, 0.00000
 Zone Sizing Information, THERMAL ZONE 34, Cooling, 33693.29293, 38747.28687, 2.69044, 3.09401, MONTREAL INT'L ANN CLG .4% CONDNS DB=>MWB, 7/21 17:50:00, 27.92300, 1.35591E-002, 45.32136, 1.28301, 3.84902E-002, 0.00000
 Zone Sizing Information, THERMAL ZONE 34, Heating, 56233.44390, 70291.80488, 2.40592, 3.00740, MONTREAL INT'L ANN HTG 99.6% CONDNS DB, 1/21 08:00:00, -23.70000, 4.44277E-004, 45.32136, 1.28301, 3.84902E-002, 0.00000
 Zone Sizing Information, THERMAL ZONE 35, Cooling, 43264.10304, 49753.71850, 3.50308, 4.02855, MONTREAL INT'L ANN CLG .4% CONDNS DB=>MWB, 7/21 18:00:00, 27.76800, 1.35588E-002, 74.15808, 2.09935, 6.29804E-002, 0.00000
 Zone Sizing Information, THERMAL ZONE 35, Heating, 71951.78302, 89939.72878, 3.07630, 3.84538, MONTREAL INT'L ANN HTG 99.6% CONDNS DB, 1/21 08:00:00, -23.70000, 4.44277E-004, 74.15808, 2.09935, 6.29804E-002, 0.00000
 Zone Sizing Information, THERMAL ZONE 36, Cooling, 42801.33378, 49221.53385, 3.46583, 3.98570, MONTREAL INT'L ANN CLG .4% CONDNS DB=>MWB, 7/21 18:00:00, 27.76800, 1.35588E-002, 70.73295, 2.00239, 6.00716E-002, 0.00000
 Zone Sizing Information, THERMAL ZONE 36, Heating, 70175.93944, 87719.92430, 3.00059, 3.75073, MONTREAL INT'L ANN HTG 99.6% CONDNS DB, 1/21 08:00:00, -23.70000, 4.44277E-004, 70.73295, 2.00239, 6.00716E-002, 0.00000
 Zone Sizing Information, THERMAL ZONE 37, Cooling, 4625.14268, 5318.91408, 0.36383, 0.41841, MONTREAL INT'L ANN CLG .4% CONDNS DB=>MWB, 7/21 17:40:00, 28.07800, 1.35593E-002, 74.15808, 2.09935, 6.29804E-003, 0.00000
[...]
 Warmup Convergence Information,THERMAL ZONE 40,SizingPeriod: MONTREAL INT'L ANN HTG WIND 99.6% CONDNS WS=>MCDB,4.1533715042E-002,0.2467849701,Pass,Pass,1.2302491995E-002,3.6626292340E-002,Pass,Pass
 Warmup Convergence Information,THERMAL ZONE 41,SizingPeriod: MONTREAL INT'L ANN HTG WIND 99.6% CONDNS WS=>MCDB,4.1467391057E-002,0.2470934582,Pass,Pass,1.0688940166E-002,3.2443382614E-002,Pass,Pass
 Warmup Convergence Information,THERMAL ZONE 42,SizingPeriod: MONTREAL INT'L ANN HTG WIND 99.6% CONDNS WS=>MCDB,4.1469797000E-002,0.2471358905,Pass,Pass,1.0582558585E-002,3.2175577193E-002,Pass,Pass
 Warmup Convergence Information,THERMAL ZONE 43,SizingPeriod: MONTREAL INT'L ANN HTG WIND 99.6% CONDNS WS=>MCDB,4.1581915692E-002,0.2466149655,Pass,Pass,1.3175943230E-002,3.9012925188E-002,Pass,Pass
 Warmup Convergence Information,THERMAL ZONE 44,SizingPeriod: MONTREAL INT'L ANN HTG WIND 99.6% CONDNS WS=>MCDB,4.1524554871E-002,0.2467940848,Pass,Pass,1.2153256613E-002,3.6232006150E-002,Pass,Pass
 Warmup Convergence Information,THERMAL ZONE 5,SizingPeriod: MONTREAL INT'L ANN HTG WIND 99.6% CONDNS WS=>MCDB,4.1566561685E-002,0.2446145755,Pass,Pass,1.1250937607E-002,3.5977349880E-002,Pass,Pass
 Warmup Convergence Information,THERMAL ZONE 6,SizingPeriod: MONTREAL INT'L ANN HTG WIND 99.6% CONDNS WS=>MCDB,4.1551537560E-002,0.2454626407,Pass,Pass,1.4644223867E-002,4.3332709012E-002,Pass,Pass
 Warmup Convergence Information,THERMAL ZONE 7,SizingPeriod: MONTREAL INT'L ANN HTG WIND 99.6% CONDNS WS=>MCDB,4.1601713760E-002,0.2444944278,Pass,Pass,1.7642655555E-002,5.2735911759E-002,Pass,Pass
 Warmup Convergence Information,THERMAL ZONE 8,SizingPeriod: MONTREAL INT'L ANN HTG WIND 99.6% CONDNS WS=>MCDB,4.1621463090E-002,0.2445335309,Pass,Pass,1.8285737397E-002,5.4594730857E-002,Pass,Pass
 Warmup Convergence Information,THERMAL ZONE 9,SizingPeriod: MONTREAL INT'L ANN HTG WIND 99.6% CONDNS WS=>MCDB,4.1488789112E-002,0.2443306926,Pass,Pass,1.5009302235E-002,4.5332181521E-002,Pass,Pass
Environment,MONTREAL INT'L ANN HUM_N 99.6% CONDNS DP=>MCDB,SizingPeriod:DesignDay,01/21,01/21,WinterDesignDay,1,N/A,N/A,N/A,N/A,N/A,N/A,Clark and Allen
Environment:Daylight Saving,No,SizingPeriod:DesignDay
Environment:Design Day Data,-23.00,0.00,DefaultMultipliers,Dewpoint,-30.50,{C},100893,260,3.9,0.00,No,No
Environment:Design Day Misc, 21,1229.0,0.1415,5.7310E-002,1.0,-11.15,-20.1,ASHRAEClearSky
Environment:WarmupDays,  4
 Warmup Convergence Information,THERMAL ZONE 1,SizingPeriod: MONTREAL INT'L ANN HUM_N 99.6% CONDNS DP=>MCDB,4.2173956933E-002,0.2481252331,Pass,Pass,1.0439610847E-002,3.1912998556E-002,Pass,Pass
 Warmup Convergence Information,THERMAL ZONE 10,SizingPeriod: MONTREAL INT'L ANN HUM_N 99.6% CONDNS DP=>MCDB,4.2237952627E-002,0.2502791110,Pass,Pass,1.0706021615E-002,3.1484750751E-002,Pass,Pass
 Warmup Convergence Information,THERMAL ZONE 11,SizingPeriod: MONTREAL INT'L ANN HUM_N 99.6% CONDNS DP=>MCDB,4.2188053832E-002,0.2504164964,Pass,Pass,1.0728594426E-002,3.2363483817E-002,Pass,Pass
 Warmup Convergence Information,THERMAL ZONE 12,SizingPeriod: MONTREAL INT'L ANN HUM_N 99.6% CONDNS DP=>MCDB,4.3157630547E-002,0.2501199950,Pass,Pass,1.3494479960E-002,4.0311318751E-002,Pass,Pass
 Warmup Convergence Information,THERMAL ZONE 13,SizingPeriod: MONTREAL INT'L ANN HUM_N 99.6% CONDNS DP=>MCDB,4.3095128017E-002,0.2484353478,Pass,Pass,1.5241816991E-002,4.5246297902E-002,Pass,Pass
 Warmup Convergence Information,THERMAL ZONE 14,SizingPeriod: MONTREAL INT'L ANN HUM_N 99.6% CONDNS DP=>MCDB,4.2757676194E-002,0.2501368682,Pass,Pass,1.2481413231E-002,3.7306794333E-002,Pass,Pass
 Warmup Convergence Information,THERMAL ZONE 15,SizingPeriod: MONTREAL INT'L ANN HUM_N 99.6% CONDNS DP=>MCDB,4.2227180274E-002,0.2503767274,Pass,Pass,1.0872521955E-002,3.2764024168E-002,Pass,Pass
 Warmup Convergence Information,THERMAL ZONE 16,SizingPeriod: MONTREAL INT'L ANN HUM_N 99.6% CONDNS DP=>MCDB,4.3123625757E-002,0.2490657593,Pass,Pass,1.4817783812E-002,4.4011320675E-002,Pass,Pass
 Warmup Convergence Information,THERMAL ZONE 17,SizingPeriod: MONTREAL INT'L ANN HUM_N 99.6% CONDNS DP=>MCDB,4.3016212468E-002,0.2463996400,Pass,Pass,1.6837051476E-002,4.9968360824E-002,Pass,Pass
 Warmup Convergence Information,THERMAL ZONE 18,SizingPeriod: MONTREAL INT'L ANN HUM_N 99.6% CONDNS DP=>MCDB,4.2684806711E-002,0.2487970086,Pass,Pass,7.0091440127E-003,2.2592705213E-002,Pass,Pass
 Warmup Convergence Information,THERMAL ZONE 19,SizingPeriod: MONTREAL INT'L ANN HUM_N 99.6% CONDNS DP=>MCDB,4.2631696514E-002,0.2500278960,Pass,Pass,1.2684184940E-002,3.7855640531E-002,Pass,Pass
 Warmup Convergence Information,THERMAL ZONE 2,SizingPeriod: MONTREAL INT'L ANN HUM_N 99.6% CONDNS DP=>MCDB,4.3114989379E-002,0.2488769903,Pass,Pass,1.4934586179E-002,4.4350191292E-002,Pass,Pass
 Warmup Convergence Information,THERMAL ZONE 20,SizingPeriod: MONTREAL INT'L ANN HUM_N 99.6% CONDNS DP=>MCDB,4.2533269262E-002,0.2500690528,Pass,Pass,1.2393324028E-002,3.7016975300E-002,Pass,Pass
 Warmup Convergence Information,THERMAL ZONE 21,SizingPeriod: MONTREAL INT'L ANN HUM_N 99.6% CONDNS DP=>MCDB,4.1846058401E-002,0.2506469330,Pass,Pass,9.1314845671E-003,2.7356129701E-002,Pass,Pass
 Warmup Convergence Information,THERMAL ZONE 22,SizingPeriod: MONTREAL INT'L ANN HUM_N 99.6% CONDNS DP=>MCDB,4.2735063700E-002,0.2500203387,Pass,Pass,1.2922194087E-002,3.8526501900E-002,Pass,Pass
 Warmup Convergence Information,THERMAL ZONE 23,SizingPeriod: MONTREAL INT'L ANN HUM_N 99.6% CONDNS DP=>MCDB,4.3082717600E-002,0.2498161279,Pass,Pass,1.3981388376E-002,4.0711149214E-002,Pass,Pass
 Warmup Convergence Information,THERMAL ZONE 24,SizingPeriod: MONTREAL INT'L ANN HUM_N 99.6% CONDNS DP=>MCDB,4.2706006399E-002,0.2500092210,Pass,Pass,1.2889403855E-002,3.8443585137E-002,Pass,Pass
 Warmup Convergence Information,THERMAL ZONE 25,SizingPeriod: MONTREAL INT'L ANN HUM_N 99.6% CONDNS DP=>MCDB,4.3084815312E-002,0.2482456910,Pass,Pass,1.5394089287E-002,4.5674547701E-002,Pass,Pass
 Warmup Convergence Information,THERMAL ZONE 26,SizingPeriod: MONTREAL INT'L ANN HUM_N 99.6% CONDNS DP=>MCDB,4.2515406270E-002,0.2506365637,Pass,Pass,8.6049984546E-003,2.7353727630E-002,Pass,Pass
 Warmup Convergence Information,THERMAL ZONE 27,SizingPeriod: MONTREAL INT'L ANN HUM_N 99.6% CONDNS DP=>MCDB,4.3097440038E-002,0.2484894711,Pass,Pass,1.5212234156E-002,4.5160545799E-002,Pass,Pass
 Warmup Convergence Information,THERMAL ZONE 28,SizingPeriod: MONTREAL INT'L ANN HUM_N 99.6% CONDNS DP=>MCDB,4.2710366002E-002,0.2490677236,Pass,Pass,7.8709754070E-003,2.5008140463E-002,Pass,Pass
 Warmup Convergence Information,THERMAL ZONE 29,SizingPeriod: MONTREAL INT'L ANN HUM_N 99.6% CONDNS DP=>MCDB,4.3112617086E-002,0.2479709991,Pass,Pass,1.5520808180E-002,4.5116312006E-002,Pass,Pass
 Warmup Convergence Information,THERMAL ZONE 3,SizingPeriod: MONTREAL INT'L ANN HUM_N 99.6% CONDNS DP=>MCDB,4.2764535014E-002,0.2501398043,Pass,Pass,1.2486832554E-002,3.7321343453E-002,Pass,Pass
 Warmup Convergence Information,THERMAL ZONE 30,SizingPeriod: MONTREAL INT'L ANN HUM_N 99.6% CONDNS DP=>MCDB,4.2309218654E-002,0.2500343587,Pass,Pass,1.1565332389E-002,3.3952600547E-002,Pass,Pass
 Warmup Convergence Information,THERMAL ZONE 31,SizingPeriod: MONTREAL INT'L ANN HUM_N 99.6% CONDNS DP=>MCDB,4.2954629131E-002,0.2493459420,Pass,Pass,1.4099261571E-002,4.1038433230E-002,Pass,Pass
 Warmup Convergence Information,THERMAL ZONE 32,SizingPeriod: MONTREAL INT'L ANN HUM_N 99.6% CONDNS DP=>MCDB,4.2972938717E-002,0.2498208373,Pass,Pass,1.3643787184E-002,3.9743025521E-002,Pass,Pass
 Warmup Convergence Information,THERMAL ZONE 33,SizingPeriod: MONTREAL INT'L ANN HUM_N 99.6% CONDNS DP=>MCDB,4.2384778830E-002,0.2499824226,Pass,Pass,1.1882644587E-002,3.4821260198E-002,Pass,Pass
 Warmup Convergence Information,THERMAL ZONE 34,SizingPeriod: MONTREAL INT'L ANN HUM_N 99.6% CONDNS DP=>MCDB,4.2217084948E-002,0.2498032845,Pass,Pass,1.1376127579E-002,3.3448097563E-002,Pass,Pass
 Warmup Convergence Information,THERMAL ZONE 35,SizingPeriod: MONTREAL INT'L ANN HUM_N 99.6% CONDNS DP=>MCDB,4.2954781652E-002,0.2494524507,Pass,Pass,1.3959294366E-002,4.0650235703E-002,Pass,Pass
 Warmup Convergence Information,THERMAL ZONE 36,SizingPeriod: MONTREAL INT'L ANN HUM_N 99.6% CONDNS DP=>MCDB,4.2822072541E-002,0.2493349520,Pass,Pass,1.3677045589E-002,3.9843272264E-002,Pass,Pass
 Warmup Convergence Information,THERMAL ZONE 37,SizingPeriod: MONTREAL INT'L ANN HUM_N 99.6% CONDNS DP=>MCDB,4.2301002407E-002,0.2502265710,Pass,Pass,1.0925502370E-002,3.2084784370E-002,Pass,Pass
 Warmup Convergence Information,THERMAL ZONE 38,SizingPeriod: MONTREAL INT'L ANN HUM_N 99.6% CONDNS DP=>MCDB,4.1857313875E-002,0.2505792269,Pass,Pass,9.2249244954E-003,2.7595713156E-002,Pass,Pass
 Warmup Convergence Information,THERMAL ZONE 39,SizingPeriod: MONTREAL INT'L ANN HUM_N 99.6% CONDNS DP=>MCDB,4.2258525969E-002,0.2502616064,Pass,Pass,1.0775213619E-002,3.1673183977E-002,Pass,Pass
 Warmup Convergence Information,THERMAL ZONE 4,SizingPeriod: MONTREAL INT'L ANN HUM_N 99.6% CONDNS DP=>MCDB,4.2682209552E-002,0.2501612605,Pass,Pass,1.2271627637E-002,3.6694345743E-002,Pass,Pass
 Warmup Convergence Information,THERMAL ZONE 40,SizingPeriod: MONTREAL INT'L ANN HUM_N 99.6% CONDNS DP=>MCDB,4.2327305794E-002,0.2501956405,Pass,Pass,1.1056080457E-002,3.2436065028E-002,Pass,Pass
 Warmup Convergence Information,THERMAL ZONE 41,SizingPeriod: MONTREAL INT'L ANN HUM_N 99.6% CONDNS DP=>MCDB,4.1878807368E-002,0.2504513733,Pass,Pass,9.4135828778E-003,2.8085205576E-002,Pass,Pass
 Warmup Convergence Information,THERMAL ZONE 42,SizingPeriod: MONTREAL INT'L ANN HUM_N 99.6% CONDNS DP=>MCDB,4.1868885691E-002,0.2505096678,Pass,Pass,9.3259746590E-003,2.7857493070E-002,Pass,Pass
 Warmup Convergence Information,THERMAL ZONE 43,SizingPeriod: MONTREAL INT'L ANN HUM_N 99.6% CONDNS DP=>MCDB,4.2582992425E-002,0.2500889651,Pass,Pass,1.1793138083E-002,3.4515117063E-002,Pass,Pass
 Warmup Convergence Information,THERMAL ZONE 44,SizingPeriod: MONTREAL INT'L ANN HUM_N 99.6% CONDNS DP=>MCDB,4.2293081819E-002,0.2502323894,Pass,Pass,1.0899034902E-002,3.2012417579E-002,Pass,Pass
 Warmup Convergence Information,THERMAL ZONE 5,SizingPeriod: MONTREAL INT'L ANN HUM_N 99.6% CONDNS DP=>MCDB,4.1616516205E-002,0.2497508849,Pass,Pass,8.0467704391E-003,2.5571731330E-002,Pass,Pass
 Warmup Convergence Information,THERMAL ZONE 6,SizingPeriod: MONTREAL INT'L ANN HUM_N 99.6% CONDNS DP=>MCDB,4.2349144211E-002,0.2500059310,Pass,Pass,1.1731266841E-002,3.4405711125E-002,Pass,Pass
 Warmup Convergence Information,THERMAL ZONE 7,SizingPeriod: MONTREAL INT'L ANN HUM_N 99.6% CONDNS DP=>MCDB,4.2650640546E-002,0.2501658260,Pass,Pass,1.2203267162E-002,3.6497316220E-002,Pass,Pass
 Warmup Convergence Information,THERMAL ZONE 8,SizingPeriod: MONTREAL INT'L ANN HUM_N 99.6% CONDNS DP=>MCDB,4.2799928403E-002,0.2501285078,Pass,Pass,1.2604215443E-002,3.7648674686E-002,Pass,Pass
 Warmup Convergence Information,THERMAL ZONE 9,SizingPeriod: MONTREAL INT'L ANN HUM_N 99.6% CONDNS DP=>MCDB,4.2128315214E-002,0.2501187869,Pass,Pass,1.0378221475E-002,3.1438857594E-002,Pass,Pass
Environment,RUN PERIOD 1,WeatherFileRunPeriod,01/01/2006,12/31/2006,Sunday,365,Use RunPeriod Specified Day,No,No,No,Yes,Yes,Clark and Allen
Environment:Daylight Saving,No,RunPeriod Object
Environment:WarmupDays,  5
 Warmup Convergence Information,THERMAL ZONE 1,RunPeriod: RUN PERIOD 1,4.4783026811E-002,0.3169084547,Pass,Pass,5.5995676927E-002,0.1346790807,Pass,Pass
 Warmup Convergence Information,THERMAL ZONE 10,RunPeriod: RUN PERIOD 1,4.4674428195E-002,0.3193598380,Pass,Pass,6.2187991909E-002,0.1278685787,Pass,Pass
 Warmup Convergence Information,THERMAL ZONE 11,RunPeriod: RUN PERIOD 1,4.4667495309E-002,0.3201222945,Pass,Pass,4.0874306237E-002,0.1407064306,Pass,Pass
 Warmup Convergence Information,THERMAL ZONE 12,RunPeriod: RUN PERIOD 1,4.4101926507E-002,0.2984572934,Pass,Pass,0.1116626792,0.3928446976,Pass,Pass
 Warmup Convergence Information,THERMAL ZONE 13,RunPeriod: RUN PERIOD 1,4.2798409929E-002,0.2864489719,Pass,Pass,8.3538725494E-002,0.2672355988,Pass,Pass
 Warmup Convergence Information,THERMAL ZONE 14,RunPeriod: RUN PERIOD 1,4.5377044910E-002,0.3118215615,Pass,Pass,7.6930455005E-002,0.2460088233,Pass,Pass
 Warmup Convergence Information,THERMAL ZONE 15,RunPeriod: RUN PERIOD 1,4.5334020862E-002,0.3192915768,Pass,Pass,5.9937195802E-002,0.1677325548,Pass,Pass
 Warmup Convergence Information,THERMAL ZONE 16,RunPeriod: RUN PERIOD 1,4.2808333633E-002,0.2837970418,Pass,Pass,0.3246786427,2.3263788217,Pass,Pass
 Warmup Convergence Information,THERMAL ZONE 17,RunPeriod: RUN PERIOD 1,4.4194587719E-002,0.2671677853,Pass,Pass,0.8817131039,7.4003100842,Pass,Pass
 Warmup Convergence Information,THERMAL ZONE 18,RunPeriod: RUN PERIOD 1,4.3913686734E-002,0.3239881664,Pass,Pass,4.7188792258E-002,7.1701850208E-002,Pass,Pass
 Warmup Convergence Information,THERMAL ZONE 19,RunPeriod: RUN PERIOD 1,4.4764907463E-002,0.3112567675,Pass,Pass,5.4724584440E-002,0.1720977500,Pass,Pass
 Warmup Convergence Information,THERMAL ZONE 2,RunPeriod: RUN PERIOD 1,4.2806627072E-002,0.2890856430,Pass,Pass,8.0542631271E-002,0.2626604143,Pass,Pass
 Warmup Convergence Information,THERMAL ZONE 20,RunPeriod: RUN PERIOD 1,4.5674902635E-002,0.3130448944,Pass,Pass,7.3186106592E-002,0.2471880047,Pass,Pass
 Warmup Convergence Information,THERMAL ZONE 21,RunPeriod: RUN PERIOD 1,4.3547384516E-002,0.3203374911,Pass,Pass,4.3804365082E-002,9.5085042924E-002,Pass,Pass
 Warmup Convergence Information,THERMAL ZONE 22,RunPeriod: RUN PERIOD 1,4.5144568498E-002,0.3029547076,Pass,Pass,0.1243976524,0.3658352658,Pass,Pass
 Warmup Convergence Information,THERMAL ZONE 23,RunPeriod: RUN PERIOD 1,4.2919554713E-002,0.2932506649,Pass,Pass,9.7146816800E-002,0.2343175606,Pass,Pass
 Warmup Convergence Information,THERMAL ZONE 24,RunPeriod: RUN PERIOD 1,4.4985410025E-002,0.3057671693,Pass,Pass,9.9026406923E-002,0.3118356299,Pass,Pass
 Warmup Convergence Information,THERMAL ZONE 25,RunPeriod: RUN PERIOD 1,4.2792292943E-002,0.2854981015,Pass,Pass,8.4872353877E-002,0.2720858687,Pass,Pass
 Warmup Convergence Information,THERMAL ZONE 26,RunPeriod: RUN PERIOD 1,4.3287658476E-002,0.3183847760,Pass,Pass,4.7070863600E-002,9.4994650480E-002,Pass,Pass
 Warmup Convergence Information,THERMAL ZONE 27,RunPeriod: RUN PERIOD 1,4.2808324638E-002,0.2818381622,Pass,Pass,0.2973722245,2.2767852760,Pass,Pass
 Warmup Convergence Information,THERMAL ZONE 28,RunPeriod: RUN PERIOD 1,4.3873814832E-002,0.3204812386,Pass,Pass,5.2636847213E-002,8.5720384893E-002,Pass,Pass
 Warmup Convergence Information,THERMAL ZONE 29,RunPeriod: RUN PERIOD 1,4.2846621135E-002,0.2781120001,Pass,Pass,0.2123015913,0.7783297929,Pass,Pass
 Warmup Convergence Information,THERMAL ZONE 3,RunPeriod: RUN PERIOD 1,4.4303748451E-002,0.3114525244,Pass,Pass,4.8918228167E-002,0.1730242784,Pass,Pass
 Warmup Convergence Information,THERMAL ZONE 30,RunPeriod: RUN PERIOD 1,4.4732880913E-002,0.3170061790,Pass,Pass,4.8275018221E-002,0.1468683547,Pass,Pass
 Warmup Convergence Information,THERMAL ZONE 31,RunPeriod: RUN PERIOD 1,4.2782525301E-002,0.2942112547,Pass,Pass,6.9724558321E-002,0.2438621513,Pass,Pass
 Warmup Convergence Information,THERMAL ZONE 32,RunPeriod: RUN PERIOD 1,4.4399125277E-002,0.2949637898,Pass,Pass,0.1756080357,0.4754433472,Pass,Pass
 Warmup Convergence Information,THERMAL ZONE 33,RunPeriod: RUN PERIOD 1,4.8167616397E-002,0.3124782055,Pass,Pass,0.1489501044,0.3562473266,Pass,Pass
 Warmup Convergence Information,THERMAL ZONE 34,RunPeriod: RUN PERIOD 1,4.4694752525E-002,0.3141492734,Pass,Pass,5.4980881133E-002,0.1354297585,Pass,Pass
 Warmup Convergence Information,THERMAL ZONE 35,RunPeriod: RUN PERIOD 1,4.2779525405E-002,0.2954547242,Pass,Pass,6.6046775388E-002,0.2320919472,Pass,Pass
 Warmup Convergence Information,THERMAL ZONE 36,RunPeriod: RUN PERIOD 1,4.2809666677E-002,0.2975046860,Pass,Pass,5.9276154057E-002,0.1991536206,Pass,Pass
 Warmup Convergence Information,THERMAL ZONE 37,RunPeriod: RUN PERIOD 1,4.4678391568E-002,0.3212352573,Pass,Pass,4.5632758480E-002,0.1237096193,Pass,Pass
 Warmup Convergence Information,THERMAL ZONE 38,RunPeriod: RUN PERIOD 1,4.3489699888E-002,0.3213719086,Pass,Pass,3.7862731063E-002,9.4235940343E-002,Pass,Pass
 Warmup Convergence Information,THERMAL ZONE 39,RunPeriod: RUN PERIOD 1,4.4565136814E-002,0.3213969499,Pass,Pass,4.4548118433E-002,0.1201176630,Pass,Pass
 Warmup Convergence Information,THERMAL ZONE 4,RunPeriod: RUN PERIOD 1,4.4993951013E-002,0.3137924870,Pass,Pass,5.4563405927E-002,0.1854462631,Pass,Pass
 Warmup Convergence Information,THERMAL ZONE 40,RunPeriod: RUN PERIOD 1,4.4751086233E-002,0.3211888900,Pass,Pass,4.6380464982E-002,0.1265060539,Pass,Pass
 Warmup Convergence Information,THERMAL ZONE 41,RunPeriod: RUN PERIOD 1,4.3854940222E-002,0.3196983186,Pass,Pass,5.8186171328E-002,0.1037333637,Pass,Pass
 Warmup Convergence Information,THERMAL ZONE 42,RunPeriod: RUN PERIOD 1,4.3722827559E-002,0.3201945511,Pass,Pass,5.0769741609E-002,9.9546048332E-002,Pass,Pass
 Warmup Convergence Information,THERMAL ZONE 43,RunPeriod: RUN PERIOD 1,4.4738739938E-002,0.3158912511,Pass,Pass,6.4639015952E-002,0.1527287324,Pass,Pass
 Warmup Convergence Information,THERMAL ZONE 44,RunPeriod: RUN PERIOD 1,4.4788802424E-002,0.3198291137,Pass,Pass,5.7082912217E-002,0.1296521211,Pass,Pass
 Warmup Convergence Information,THERMAL ZONE 5,RunPeriod: RUN PERIOD 1,4.2998868205E-002,0.3186733844,Pass,Pass,4.5002511792E-002,9.6566903192E-002,Pass,Pass
 Warmup Convergence Information,THERMAL ZONE 6,RunPeriod: RUN PERIOD 1,4.4994686996E-002,0.3137283553,Pass,Pass,7.3306808366E-002,0.1389220235,Pass,Pass
 Warmup Convergence Information,THERMAL ZONE 7,RunPeriod: RUN PERIOD 1,4.6002917607E-002,0.3123420260,Pass,Pass,0.1131792122,0.4086811801,Pass,Pass
 Warmup Convergence Information,THERMAL ZONE 8,RunPeriod: RUN PERIOD 1,4.4234585600E-002,0.3105499472,Pass,Pass,5.0395611441E-002,0.1750980514,Pass,Pass
 Warmup Convergence Information,THERMAL ZONE 9,RunPeriod: RUN PERIOD 1,4.5215368742E-002,0.3182758648,Pass,Pass,5.8682485941E-002,0.1630251551,Pass,Pass
Environment,MONTREAL INT'L ANN CLG .4% CONDNS DB=>MWB HVAC Sizing Pass 1,SizingPeriod:DesignDay,07/21,07/21,SummerDesignDay,1,N/A,N/A,N/A,N/A,N/A,N/A,Clark and Allen
Environment:Daylight Saving,No,SizingPeriod:DesignDay
Environment,MONTREAL INT'L ANN CLG .4% CONDNS DP=>MDB HVAC Sizing Pass 1,SizingPeriod:DesignDay,07/21,07/21,SummerDesignDay,1,N/A,N/A,N/A,N/A,N/A,N/A,Clark and Allen
Environment:Daylight Saving,No,SizingPeriod:DesignDay
Environment,MONTREAL INT'L ANN CLG .4% CONDNS ENTH=>MDB HVAC Sizing Pass 1,SizingPeriod:DesignDay,07/21,07/21,SummerDesignDay,1,N/A,N/A,N/A,N/A,N/A,N/A,Clark and Allen
Environment:Daylight Saving,No,SizingPeriod:DesignDay
Environment,MONTREAL INT'L ANN CLG .4% CONDNS WB=>MDB HVAC Sizing Pass 1,SizingPeriod:DesignDay,07/21,07/21,SummerDesignDay,1,N/A,N/A,N/A,N/A,N/A,N/A,Clark and Allen
Environment:Daylight Saving,No,SizingPeriod:DesignDay
Environment,MONTREAL INT'L ANN HTG 99.6% CONDNS DB HVAC Sizing Pass 1,SizingPeriod:DesignDay,01/21,01/21,WinterDesignDay,1,N/A,N/A,N/A,N/A,N/A,N/A,Clark and Allen
Environment:Daylight Saving,No,SizingPeriod:DesignDay
Environment,MONTREAL INT'L ANN HTG WIND 99.6% CONDNS WS=>MCDB HVAC Sizing Pass 1,SizingPeriod:DesignDay,01/21,01/21,WinterDesignDay,1,N/A,N/A,N/A,N/A,N/A,N/A,Clark and Allen
Environment:Daylight Saving,No,SizingPeriod:DesignDay
Environment,MONTREAL INT'L ANN HUM_N 99.6% CONDNS DP=>MCDB HVAC Sizing Pass 1,SizingPeriod:DesignDay,01/21,01/21,WinterDesignDay,1,N/A,N/A,N/A,N/A,N/A,N/A,Clark and Allen
Environment:Daylight Saving,No,SizingPeriod:DesignDay
! <Program Control Information:Threads/Parallel Sims>, Threading Supported,Maximum Number of Threads, Env Set Threads (OMP_NUM_THREADS), EP Env Set Threads (EP_OMP_NUM_THREADS), IDF Set Threads, Number of Threads Used (Interior Radiant Exchange), Number Nominal Surfaces, Number Parallel Sims
Program Control:Threads/Parallel Sims, No,1, N/A, N/A, N/A, N/A, N/A, N/A
End of Data
