Program Version,EnergyPlus, Version 23.2.0-7636e6b3e9, YMD=2024.07.17 06:55
! This file shows details about the branches, nodes, and other
! elements of the flow connections.
! This file is intended for use in "debugging" potential problems
! that may also be detected by the program, but may be more easily
! identified by "eye".
! This file is also intended to support software which draws a
! schematic diagram of the HVAC system.
! ===============================================================
! #Nodes,<Number of Unique Nodes>
 #Nodes,411
! <Node>,<NodeNumber>,<Node Name>,<Node Fluid Type>,<# Times Node Referenced After Definition>
 Node,1,NODE 55,Air,3
 Node,2,NODE 54,Air,3
 Node,3,NODE 135,Air,3
 Node,4,NODE 134,Air,3
 Node,5,NODE 137,Air,3
 Node,6,NODE 136,Air,3
 Node,7,NODE 139,Air,3
 Node,8,NODE 138,Air,3
 Node,9,NODE 131,Air,3
 Node,10,NODE 130,Air,3
 Node,11,NODE 141,Air,3
 Node,12,NODE 140,Air,3
 Node,13,NODE 123,Air,3
 Node,14,NODE 122,Air,3
 Node,15,NODE 121,Air,3
 Node,16,NODE 120,Air,3
 Node,17,NODE 129,Air,3
 Node,18,NODE 128,Air,3
 Node,19,NODE 127,Air,3
 Node,20,NODE 126,Air,3
 Node,21,NODE 125,Air,3
 Node,22,NODE 124,Air,3
 Node,23,NODE 111,Air,3
 Node,24,NODE 110,Air,3
 Node,25,NODE 61,Air,3
 Node,26,NODE 60,Air,3
 Node,27,NODE 99,Air,3
 Node,28,NODE 98,Air,3
 Node,29,NODE 69,Air,3
 Node,30,NODE 68,Air,3
 Node,31,NODE 79,Air,3
 Node,32,NODE 78,Air,3
 Node,33,NODE 59,Air,3
 Node,34,NODE 58,Air,3
 Node,35,NODE 103,Air,3
 Node,36,NODE 102,Air,3
 Node,37,NODE 87,Air,3
 Node,38,NODE 86,Air,3
 Node,39,NODE 71,Air,3
 Node,40,NODE 70,Air,3
 Node,41,NODE 93,Air,3
 Node,42,NODE 92,Air,3
 Node,43,NODE 81,Air,3
 Node,44,NODE 80,Air,3
 Node,45,NODE 113,Air,3
 Node,46,NODE 112,Air,3
 Node,47,NODE 83,Air,3
 Node,48,NODE 82,Air,3
 Node,49,NODE 89,Air,3
 Node,50,NODE 88,Air,3
 Node,51,NODE 95,Air,3
 Node,52,NODE 94,Air,3
 Node,53,NODE 63,Air,3
 Node,54,NODE 62,Air,3
 Node,55,NODE 85,Air,3
 Node,56,NODE 84,Air,3
 Node,57,NODE 73,Air,3
 Node,58,NODE 72,Air,3
 Node,59,NODE 77,Air,3
 Node,60,NODE 76,Air,3
 Node,61,NODE 91,Air,3
 Node,62,NODE 90,Air,3
 Node,63,NODE 65,Air,3
 Node,64,NODE 64,Air,3
 Node,65,NODE 67,Air,3
 Node,66,NODE 66,Air,3
 Node,67,NODE 117,Air,3
 Node,68,NODE 116,Air,3
 Node,69,NODE 105,Air,3
 Node,70,NODE 104,Air,3
 Node,71,NODE 101,Air,3
 Node,72,NODE 100,Air,3
 Node,73,NODE 97,Air,3
 Node,74,NODE 96,Air,3
 Node,75,NODE 75,Air,3
 Node,76,NODE 74,Air,3
 Node,77,NODE 57,Air,3
 Node,78,NODE 56,Air,3
 Node,79,NODE 109,Air,3
 Node,80,NODE 108,Air,3
 Node,81,NODE 107,Air,3
 Node,82,NODE 106,Air,3
 Node,83,NODE 115,Air,3
 Node,84,NODE 114,Air,3
 Node,85,NODE 119,Air,3
 Node,86,NODE 118,Air,3
 Node,87,NODE 133,Air,3
 Node,88,NODE 132,Air,3
 Node,89,NODE 45,Water,2
 Node,90,NODE 51,Water,1
 Node,91,NODE 47,Water,1
 Node,92,NODE 52,Water,1
 Node,93,SERVICE WATER LOOP SUPPLY OUTLET PIPE NODE,Water,1
 Node,94,NODE 46,Water,4
 Node,95,NODE 48,Water,2
 Node,96,SERVICE WATER LOOP DEMAND INLET PIPE NODE,Water,1
 Node,97,NODE 50,Water,1
 Node,98,NODE 53,Water,1
 Node,99,SERVICE WATER LOOP DEMAND BYPASS PIPE INLET NODE,Water,1
 Node,100,SERVICE WATER LOOP DEMAND BYPASS PIPE OUTLET NODE,Water,1
 Node,101,SERVICE WATER LOOP DEMAND OUTLET PIPE NODE,Water,1
 Node,102,NODE 49,Water,2
 Node,103,PTHP OA NODE,Air,1
 Node,104,PTHP 40 OA NODE,Air,1
 Node,105,PTHP 41 OA NODE,Air,1
 Node,106,PTHP 42 OA NODE,Air,1
 Node,107,PTHP 38 OA NODE,Air,1
 Node,108,PTHP 43 OA NODE,Air,1
 Node,109,PTHP 34 OA NODE,Air,1
 Node,110,PTHP 33 OA NODE,Air,1
 Node,111,PTHP 37 OA NODE,Air,1
 Node,112,PTHP 36 OA NODE,Air,1
 Node,113,PTHP 35 OA NODE,Air,1
 Node,114,PTHP 28 OA NODE,Air,1
 Node,115,PTHP 3 OA NODE,Air,1
 Node,116,PTHP 22 OA NODE,Air,1
 Node,117,PTHP 7 OA NODE,Air,1
 Node,118,PTHP 12 OA NODE,Air,1
 Node,119,PTHP 2 OA NODE,Air,1
 Node,120,PTHP 24 OA NODE,Air,1
 Node,121,PTHP 16 OA NODE,Air,1
 Node,122,PTHP 8 OA NODE,Air,1
 Node,123,PTHP 19 OA NODE,Air,1
 Node,124,PTHP 13 OA NODE,Air,1
 Node,125,PTHP 29 OA NODE,Air,1
 Node,126,PTHP 14 OA NODE,Air,1
 Node,127,PTHP 17 OA NODE,Air,1
 Node,128,PTHP 20 OA NODE,Air,1
 Node,129,PTHP 4 OA NODE,Air,1
 Node,130,PTHP 15 OA NODE,Air,1
 Node,131,PTHP 9 OA NODE,Air,1
 Node,132,PTHP 11 OA NODE,Air,1
 Node,133,PTHP 18 OA NODE,Air,1
 Node,134,PTHP 5 OA NODE,Air,1
 Node,135,PTHP 6 OA NODE,Air,1
 Node,136,PTHP 31 OA NODE,Air,1
 Node,137,PTHP 25 OA NODE,Air,1
 Node,138,PTHP 23 OA NODE,Air,1
 Node,139,PTHP 21 OA NODE,Air,1
 Node,140,PTHP 10 OA NODE,Air,1
 Node,141,PTHP 1 OA NODE,Air,1
 Node,142,PTHP 27 OA NODE,Air,1
 Node,143,PTHP 26 OA NODE,Air,1
 Node,144,PTHP 30 OA NODE,Air,1
 Node,145,PTHP 32 OA NODE,Air,1
 Node,146,PTHP 39 OA NODE,Air,1
 Node,147,MODEL OUTDOOR AIR NODE,Air,0
 Node,148,NODE 1,Air,0
 Node,149,PTHP MIXED AIR NODE,Air,1
 Node,150,PTHP COOLING COIL OUTLET NODE,Air,1
 Node,151,PTHP 40 MIXED AIR NODE,Air,1
 Node,152,PTHP 40 COOLING COIL OUTLET NODE,Air,1
 Node,153,PTHP 41 MIXED AIR NODE,Air,1
 Node,154,PTHP 41 COOLING COIL OUTLET NODE,Air,1
 Node,155,PTHP 42 MIXED AIR NODE,Air,1
 Node,156,PTHP 42 COOLING COIL OUTLET NODE,Air,1
 Node,157,PTHP 38 MIXED AIR NODE,Air,1
 Node,158,PTHP 38 COOLING COIL OUTLET NODE,Air,1
 Node,159,PTHP 43 MIXED AIR NODE,Air,1
 Node,160,PTHP 43 COOLING COIL OUTLET NODE,Air,1
 Node,161,PTHP 34 MIXED AIR NODE,Air,1
 Node,162,PTHP 34 COOLING COIL OUTLET NODE,Air,1
 Node,163,PTHP 33 MIXED AIR NODE,Air,1
 Node,164,PTHP 33 COOLING COIL OUTLET NODE,Air,1
 Node,165,PTHP 37 MIXED AIR NODE,Air,1
 Node,166,PTHP 37 COOLING COIL OUTLET NODE,Air,1
 Node,167,PTHP 36 MIXED AIR NODE,Air,1
 Node,168,PTHP 36 COOLING COIL OUTLET NODE,Air,1
 Node,169,PTHP 35 MIXED AIR NODE,Air,1
 Node,170,PTHP 35 COOLING COIL OUTLET NODE,Air,1
 Node,171,PTHP 28 MIXED AIR NODE,Air,1
 Node,172,PTHP 28 COOLING COIL OUTLET NODE,Air,1
 Node,173,PTHP 3 MIXED AIR NODE,Air,1
 Node,174,PTHP 3 COOLING COIL OUTLET NODE,Air,1
 Node,175,PTHP 22 MIXED AIR NODE,Air,1
 Node,176,PTHP 22 COOLING COIL OUTLET NODE,Air,1
 Node,177,PTHP 7 MIXED AIR NODE,Air,1
 Node,178,PTHP 7 COOLING COIL OUTLET NODE,Air,1
 Node,179,PTHP 12 MIXED AIR NODE,Air,1
 Node,180,PTHP 12 COOLING COIL OUTLET NODE,Air,1
 Node,181,PTHP 2 MIXED AIR NODE,Air,1
 Node,182,PTHP 2 COOLING COIL OUTLET NODE,Air,1
 Node,183,PTHP 24 MIXED AIR NODE,Air,1
 Node,184,PTHP 24 COOLING COIL OUTLET NODE,Air,1
 Node,185,PTHP 16 MIXED AIR NODE,Air,1
 Node,186,PTHP 16 COOLING COIL OUTLET NODE,Air,1
 Node,187,PTHP 8 MIXED AIR NODE,Air,1
 Node,188,PTHP 8 COOLING COIL OUTLET NODE,Air,1
 Node,189,PTHP 19 MIXED AIR NODE,Air,1
 Node,190,PTHP 19 COOLING COIL OUTLET NODE,Air,1
 Node,191,PTHP 13 MIXED AIR NODE,Air,1
 Node,192,PTHP 13 COOLING COIL OUTLET NODE,Air,1
 Node,193,PTHP 29 MIXED AIR NODE,Air,1
 Node,194,PTHP 29 COOLING COIL OUTLET NODE,Air,1
 Node,195,PTHP 14 MIXED AIR NODE,Air,1
 Node,196,PTHP 14 COOLING COIL OUTLET NODE,Air,1
 Node,197,PTHP 17 MIXED AIR NODE,Air,1
 Node,198,PTHP 17 COOLING COIL OUTLET NODE,Air,1
 Node,199,PTHP 20 MIXED AIR NODE,Air,1
 Node,200,PTHP 20 COOLING COIL OUTLET NODE,Air,1
 Node,201,PTHP 4 MIXED AIR NODE,Air,1
 Node,202,PTHP 4 COOLING COIL OUTLET NODE,Air,1
 Node,203,PTHP 15 MIXED AIR NODE,Air,1
 Node,204,PTHP 15 COOLING COIL OUTLET NODE,Air,1
 Node,205,PTHP 9 MIXED AIR NODE,Air,1
 Node,206,PTHP 9 COOLING COIL OUTLET NODE,Air,1
 Node,207,PTHP 11 MIXED AIR NODE,Air,1
 Node,208,PTHP 11 COOLING COIL OUTLET NODE,Air,1
 Node,209,PTHP 18 MIXED AIR NODE,Air,1
 Node,210,PTHP 18 COOLING COIL OUTLET NODE,Air,1
 Node,211,PTHP 5 MIXED AIR NODE,Air,1
 Node,212,PTHP 5 COOLING COIL OUTLET NODE,Air,1
 Node,213,PTHP 6 MIXED AIR NODE,Air,1
 Node,214,PTHP 6 COOLING COIL OUTLET NODE,Air,1
 Node,215,PTHP 31 MIXED AIR NODE,Air,1
 Node,216,PTHP 31 COOLING COIL OUTLET NODE,Air,1
 Node,217,PTHP 25 MIXED AIR NODE,Air,1
 Node,218,PTHP 25 COOLING COIL OUTLET NODE,Air,1
 Node,219,PTHP 23 MIXED AIR NODE,Air,1
 Node,220,PTHP 23 COOLING COIL OUTLET NODE,Air,1
 Node,221,PTHP 21 MIXED AIR NODE,Air,1
 Node,222,PTHP 21 COOLING COIL OUTLET NODE,Air,1
 Node,223,PTHP 10 MIXED AIR NODE,Air,1
 Node,224,PTHP 10 COOLING COIL OUTLET NODE,Air,1
 Node,225,PTHP 1 MIXED AIR NODE,Air,1
 Node,226,PTHP 1 COOLING COIL OUTLET NODE,Air,1
 Node,227,PTHP 27 MIXED AIR NODE,Air,1
 Node,228,PTHP 27 COOLING COIL OUTLET NODE,Air,1
 Node,229,PTHP 26 MIXED AIR NODE,Air,1
 Node,230,PTHP 26 COOLING COIL OUTLET NODE,Air,1
 Node,231,PTHP 30 MIXED AIR NODE,Air,1
 Node,232,PTHP 30 COOLING COIL OUTLET NODE,Air,1
 Node,233,PTHP 32 MIXED AIR NODE,Air,1
 Node,234,PTHP 32 COOLING COIL OUTLET NODE,Air,1
 Node,235,PTHP 39 MIXED AIR NODE,Air,1
 Node,236,PTHP 39 COOLING COIL OUTLET NODE,Air,1
 Node,237,PTHP HEATING COIL OUTLET NODE,Air,1
 Node,238,PTHP 40 HEATING COIL OUTLET NODE,Air,1
 Node,239,PTHP 41 HEATING COIL OUTLET NODE,Air,1
 Node,240,PTHP 42 HEATING COIL OUTLET NODE,Air,1
 Node,241,PTHP 38 HEATING COIL OUTLET NODE,Air,1
 Node,242,PTHP 43 HEATING COIL OUTLET NODE,Air,1
 Node,243,PTHP 34 HEATING COIL OUTLET NODE,Air,1
 Node,244,PTHP 33 HEATING COIL OUTLET NODE,Air,1
 Node,245,PTHP 37 HEATING COIL OUTLET NODE,Air,1
 Node,246,PTHP 36 HEATING COIL OUTLET NODE,Air,1
 Node,247,PTHP 35 HEATING COIL OUTLET NODE,Air,1
 Node,248,PTHP 28 HEATING COIL OUTLET NODE,Air,1
 Node,249,PTHP 3 HEATING COIL OUTLET NODE,Air,1
 Node,250,PTHP 22 HEATING COIL OUTLET NODE,Air,1
 Node,251,PTHP 7 HEATING COIL OUTLET NODE,Air,1
 Node,252,PTHP 12 HEATING COIL OUTLET NODE,Air,1
 Node,253,PTHP 2 HEATING COIL OUTLET NODE,Air,1
 Node,254,PTHP 24 HEATING COIL OUTLET NODE,Air,1
 Node,255,PTHP 16 HEATING COIL OUTLET NODE,Air,1
 Node,256,PTHP 8 HEATING COIL OUTLET NODE,Air,1
 Node,257,PTHP 19 HEATING COIL OUTLET NODE,Air,1
 Node,258,PTHP 13 HEATING COIL OUTLET NODE,Air,1
 Node,259,PTHP 29 HEATING COIL OUTLET NODE,Air,1
 Node,260,PTHP 14 HEATING COIL OUTLET NODE,Air,1
 Node,261,PTHP 17 HEATING COIL OUTLET NODE,Air,1
 Node,262,PTHP 20 HEATING COIL OUTLET NODE,Air,1
 Node,263,PTHP 4 HEATING COIL OUTLET NODE,Air,1
 Node,264,PTHP 15 HEATING COIL OUTLET NODE,Air,1
 Node,265,PTHP 9 HEATING COIL OUTLET NODE,Air,1
 Node,266,PTHP 11 HEATING COIL OUTLET NODE,Air,1
 Node,267,PTHP 18 HEATING COIL OUTLET NODE,Air,1
 Node,268,PTHP 5 HEATING COIL OUTLET NODE,Air,1
 Node,269,PTHP 6 HEATING COIL OUTLET NODE,Air,1
 Node,270,PTHP 31 HEATING COIL OUTLET NODE,Air,1
 Node,271,PTHP 25 HEATING COIL OUTLET NODE,Air,1
 Node,272,PTHP 23 HEATING COIL OUTLET NODE,Air,1
 Node,273,PTHP 21 HEATING COIL OUTLET NODE,Air,1
 Node,274,PTHP 10 HEATING COIL OUTLET NODE,Air,1
 Node,275,PTHP 1 HEATING COIL OUTLET NODE,Air,1
 Node,276,PTHP 27 HEATING COIL OUTLET NODE,Air,1
 Node,277,PTHP 26 HEATING COIL OUTLET NODE,Air,1
 Node,278,PTHP 30 HEATING COIL OUTLET NODE,Air,1
 Node,279,PTHP 32 HEATING COIL OUTLET NODE,Air,1
 Node,280,PTHP 39 HEATING COIL OUTLET NODE,Air,1
 Node,281,PTHP RELIEF AIR NODE,Air,0
 Node,282,PTHP 40 RELIEF AIR NODE,Air,0
 Node,283,PTHP 41 RELIEF AIR NODE,Air,0
 Node,284,PTHP 42 RELIEF AIR NODE,Air,0
 Node,285,PTHP 38 RELIEF AIR NODE,Air,0
 Node,286,PTHP 43 RELIEF AIR NODE,Air,0
 Node,287,PTHP 34 RELIEF AIR NODE,Air,0
 Node,288,PTHP 33 RELIEF AIR NODE,Air,0
 Node,289,PTHP 37 RELIEF AIR NODE,Air,0
 Node,290,PTHP 36 RELIEF AIR NODE,Air,0
 Node,291,PTHP 35 RELIEF AIR NODE,Air,0
 Node,292,PTHP 28 RELIEF AIR NODE,Air,0
 Node,293,PTHP 3 RELIEF AIR NODE,Air,0
 Node,294,PTHP 22 RELIEF AIR NODE,Air,0
 Node,295,PTHP 7 RELIEF AIR NODE,Air,0
 Node,296,PTHP 12 RELIEF AIR NODE,Air,0
 Node,297,PTHP 2 RELIEF AIR NODE,Air,0
 Node,298,PTHP 24 RELIEF AIR NODE,Air,0
 Node,299,PTHP 16 RELIEF AIR NODE,Air,0
 Node,300,PTHP 8 RELIEF AIR NODE,Air,0
 Node,301,PTHP 19 RELIEF AIR NODE,Air,0
 Node,302,PTHP 13 RELIEF AIR NODE,Air,0
 Node,303,PTHP 29 RELIEF AIR NODE,Air,0
 Node,304,PTHP 14 RELIEF AIR NODE,Air,0
 Node,305,PTHP 17 RELIEF AIR NODE,Air,0
 Node,306,PTHP 20 RELIEF AIR NODE,Air,0
 Node,307,PTHP 4 RELIEF AIR NODE,Air,0
 Node,308,PTHP 15 RELIEF AIR NODE,Air,0
 Node,309,PTHP 9 RELIEF AIR NODE,Air,0
 Node,310,PTHP 11 RELIEF AIR NODE,Air,0
 Node,311,PTHP 18 RELIEF AIR NODE,Air,0
 Node,312,PTHP 5 RELIEF AIR NODE,Air,0
 Node,313,PTHP 6 RELIEF AIR NODE,Air,0
 Node,314,PTHP 31 RELIEF AIR NODE,Air,0
 Node,315,PTHP 25 RELIEF AIR NODE,Air,0
 Node,316,PTHP 23 RELIEF AIR NODE,Air,0
 Node,317,PTHP 21 RELIEF AIR NODE,Air,0
 Node,318,PTHP 10 RELIEF AIR NODE,Air,0
 Node,319,PTHP 1 RELIEF AIR NODE,Air,0
 Node,320,PTHP 27 RELIEF AIR NODE,Air,0
 Node,321,PTHP 26 RELIEF AIR NODE,Air,0
 Node,322,PTHP 30 RELIEF AIR NODE,Air,0
 Node,323,PTHP 32 RELIEF AIR NODE,Air,0
 Node,324,PTHP 39 RELIEF AIR NODE,Air,0
 Node,325,NODE 10,Air,0
 Node,326,NODE 11,Air,0
 Node,327,NODE 12,Air,0
 Node,328,NODE 13,Air,0
 Node,329,NODE 14,Air,0
 Node,330,NODE 15,Air,0
 Node,331,NODE 16,Air,0
 Node,332,NODE 17,Air,0
 Node,333,NODE 18,Air,0
 Node,334,NODE 19,Air,0
 Node,335,NODE 2,Air,0
 Node,336,NODE 20,Air,0
 Node,337,NODE 21,Air,0
 Node,338,NODE 22,Air,0
 Node,339,NODE 23,Air,0
 Node,340,NODE 24,Air,0
 Node,341,NODE 25,Air,0
 Node,342,NODE 26,Air,0
 Node,343,NODE 27,Air,0
 Node,344,NODE 28,Air,0
 Node,345,NODE 29,Air,0
 Node,346,NODE 3,Air,0
 Node,347,NODE 30,Air,0
 Node,348,NODE 31,Air,0
 Node,349,NODE 32,Air,0
 Node,350,NODE 33,Air,0
 Node,351,NODE 34,Air,0
 Node,352,NODE 35,Air,0
 Node,353,NODE 36,Air,0
 Node,354,NODE 37,Air,0
 Node,355,NODE 38,Air,0
 Node,356,NODE 39,Air,0
 Node,357,NODE 4,Air,0
 Node,358,NODE 40,Air,0
 Node,359,NODE 41,Air,0
 Node,360,NODE 42,Air,0
 Node,361,NODE 43,Air,0
 Node,362,NODE 44,Air,0
 Node,363,NODE 5,Air,0
 Node,364,NODE 6,Air,0
 Node,365,NODE 7,Air,0
 Node,366,NODE 8,Air,0
 Node,367,NODE 9,Air,0
 Node,368,PTHP FAN OUTLET NODE,Air,1
 Node,369,PTHP 40 FAN OUTLET NODE,Air,1
 Node,370,PTHP 41 FAN OUTLET NODE,Air,1
 Node,371,PTHP 42 FAN OUTLET NODE,Air,1
 Node,372,PTHP 38 FAN OUTLET NODE,Air,1
 Node,373,PTHP 43 FAN OUTLET NODE,Air,1
 Node,374,PTHP 34 FAN OUTLET NODE,Air,1
 Node,375,PTHP 33 FAN OUTLET NODE,Air,1
 Node,376,PTHP 37 FAN OUTLET NODE,Air,1
 Node,377,PTHP 36 FAN OUTLET NODE,Air,1
 Node,378,PTHP 35 FAN OUTLET NODE,Air,1
 Node,379,PTHP 28 FAN OUTLET NODE,Air,1
 Node,380,PTHP 3 FAN OUTLET NODE,Air,1
 Node,381,PTHP 22 FAN OUTLET NODE,Air,1
 Node,382,PTHP 7 FAN OUTLET NODE,Air,1
 Node,383,PTHP 12 FAN OUTLET NODE,Air,1
 Node,384,PTHP 2 FAN OUTLET NODE,Air,1
 Node,385,PTHP 24 FAN OUTLET NODE,Air,1
 Node,386,PTHP 16 FAN OUTLET NODE,Air,1
 Node,387,PTHP 8 FAN OUTLET NODE,Air,1
 Node,388,PTHP 19 FAN OUTLET NODE,Air,1
 Node,389,PTHP 13 FAN OUTLET NODE,Air,1
 Node,390,PTHP 29 FAN OUTLET NODE,Air,1
 Node,391,PTHP 14 FAN OUTLET NODE,Air,1
 Node,392,PTHP 17 FAN OUTLET NODE,Air,1
 Node,393,PTHP 20 FAN OUTLET NODE,Air,1
 Node,394,PTHP 4 FAN OUTLET NODE,Air,1
 Node,395,PTHP 15 FAN OUTLET NODE,Air,1
 Node,396,PTHP 9 FAN OUTLET NODE,Air,1
 Node,397,PTHP 11 FAN OUTLET NODE,Air,1
 Node,398,PTHP 18 FAN OUTLET NODE,Air,1
 Node,399,PTHP 5 FAN OUTLET NODE,Air,1
 Node,400,PTHP 6 FAN OUTLET NODE,Air,1
 Node,401,PTHP 31 FAN OUTLET NODE,Air,1
 Node,402,PTHP 25 FAN OUTLET NODE,Air,1
 Node,403,PTHP 23 FAN OUTLET NODE,Air,1
 Node,404,PTHP 21 FAN OUTLET NODE,Air,1
 Node,405,PTHP 10 FAN OUTLET NODE,Air,1
 Node,406,PTHP 1 FAN OUTLET NODE,Air,1
 Node,407,PTHP 27 FAN OUTLET NODE,Air,1
 Node,408,PTHP 26 FAN OUTLET NODE,Air,1
 Node,409,PTHP 30 FAN OUTLET NODE,Air,1
 Node,410,PTHP 32 FAN OUTLET NODE,Air,1
 Node,411,PTHP 39 FAN OUTLET NODE,Air,1
! ===============================================================
! Suspicious nodes have 0 references.  It is normal for some nodes, however.
! Listing nodes with 0 references (culled from previous list):
! <Suspicious Node>,<NodeNumber>,<Node Name>,<Node Fluid Type>,<# Times Node Referenced After Definition>
 Suspicious Node,147,MODEL OUTDOOR AIR NODE,Air,0
 Suspicious Node,148,NODE 1,Air,0
 Suspicious Node,281,PTHP RELIEF AIR NODE,Air,0
 Suspicious Node,282,PTHP 40 RELIEF AIR NODE,Air,0
 Suspicious Node,283,PTHP 41 RELIEF AIR NODE,Air,0
 Suspicious Node,284,PTHP 42 RELIEF AIR NODE,Air,0
 Suspicious Node,285,PTHP 38 RELIEF AIR NODE,Air,0
 Suspicious Node,286,PTHP 43 RELIEF AIR NODE,Air,0
 Suspicious Node,287,PTHP 34 RELIEF AIR NODE,Air,0
 Suspicious Node,288,PTHP 33 RELIEF AIR NODE,Air,0
 Suspicious Node,289,PTHP 37 RELIEF AIR NODE,Air,0
 Suspicious Node,290,PTHP 36 RELIEF AIR NODE,Air,0
 Suspicious Node,291,PTHP 35 RELIEF AIR NODE,Air,0
 Suspicious Node,292,PTHP 28 RELIEF AIR NODE,Air,0
 Suspicious Node,293,PTHP 3 RELIEF AIR NODE,Air,0
 Suspicious Node,294,PTHP 22 RELIEF AIR NODE,Air,0
 Suspicious Node,295,PTHP 7 RELIEF AIR NODE,Air,0
 Suspicious Node,296,PTHP 12 RELIEF AIR NODE,Air,0
 Suspicious Node,297,PTHP 2 RELIEF AIR NODE,Air,0
 Suspicious Node,298,PTHP 24 RELIEF AIR NODE,Air,0
 Suspicious Node,299,PTHP 16 RELIEF AIR NODE,Air,0
 Suspicious Node,300,PTHP 8 RELIEF AIR NODE,Air,0
 Suspicious Node,301,PTHP 19 RELIEF AIR NODE,Air,0
 Suspicious Node,302,PTHP 13 RELIEF AIR NODE,Air,0
 Suspicious Node,303,PTHP 29 RELIEF AIR NODE,Air,0
 Suspicious Node,304,PTHP 14 RELIEF AIR NODE,Air,0
 Suspicious Node,305,PTHP 17 RELIEF AIR NODE,Air,0
 Suspicious Node,306,PTHP 20 RELIEF AIR NODE,Air,0
 Suspicious Node,307,PTHP 4 RELIEF AIR NODE,Air,0
 Suspicious Node,308,PTHP 15 RELIEF AIR NODE,Air,0
 Suspicious Node,309,PTHP 9 RELIEF AIR NODE,Air,0
 Suspicious Node,310,PTHP 11 RELIEF AIR NODE,Air,0
 Suspicious Node,311,PTHP 18 RELIEF AIR NODE,Air,0
 Suspicious Node,312,PTHP 5 RELIEF AIR NODE,Air,0
 Suspicious Node,313,PTHP 6 RELIEF AIR NODE,Air,0
 Suspicious Node,314,PTHP 31 RELIEF AIR NODE,Air,0
 Suspicious Node,315,PTHP 25 RELIEF AIR NODE,Air,0
 Suspicious Node,316,PTHP 23 RELIEF AIR NODE,Air,0
 Suspicious Node,317,PTHP 21 RELIEF AIR NODE,Air,0
 Suspicious Node,318,PTHP 10 RELIEF AIR NODE,Air,0
 Suspicious Node,319,PTHP 1 RELIEF AIR NODE,Air,0
 Suspicious Node,320,PTHP 27 RELIEF AIR NODE,Air,0
 Suspicious Node,321,PTHP 26 RELIEF AIR NODE,Air,0
 Suspicious Node,322,PTHP 30 RELIEF AIR NODE,Air,0
 Suspicious Node,323,PTHP 32 RELIEF AIR NODE,Air,0
 Suspicious Node,324,PTHP 39 RELIEF AIR NODE,Air,0
 Suspicious Node,325,NODE 10,Air,0
 Suspicious Node,326,NODE 11,Air,0
 Suspicious Node,327,NODE 12,Air,0
 Suspicious Node,328,NODE 13,Air,0
 Suspicious Node,329,NODE 14,Air,0
 Suspicious Node,330,NODE 15,Air,0
 Suspicious Node,331,NODE 16,Air,0
 Suspicious Node,332,NODE 17,Air,0
 Suspicious Node,333,NODE 18,Air,0
 Suspicious Node,334,NODE 19,Air,0
 Suspicious Node,335,NODE 2,Air,0
 Suspicious Node,336,NODE 20,Air,0
 Suspicious Node,337,NODE 21,Air,0
 Suspicious Node,338,NODE 22,Air,0
 Suspicious Node,339,NODE 23,Air,0
 Suspicious Node,340,NODE 24,Air,0
 Suspicious Node,341,NODE 25,Air,0
 Suspicious Node,342,NODE 26,Air,0
 Suspicious Node,343,NODE 27,Air,0
 Suspicious Node,344,NODE 28,Air,0
 Suspicious Node,345,NODE 29,Air,0
 Suspicious Node,346,NODE 3,Air,0
 Suspicious Node,347,NODE 30,Air,0
 Suspicious Node,348,NODE 31,Air,0
 Suspicious Node,349,NODE 32,Air,0
 Suspicious Node,350,NODE 33,Air,0
 Suspicious Node,351,NODE 34,Air,0
 Suspicious Node,352,NODE 35,Air,0
 Suspicious Node,353,NODE 36,Air,0
 Suspicious Node,354,NODE 37,Air,0
 Suspicious Node,355,NODE 38,Air,0
 Suspicious Node,356,NODE 39,Air,0
 Suspicious Node,357,NODE 4,Air,0
 Suspicious Node,358,NODE 40,Air,0
 Suspicious Node,359,NODE 41,Air,0
 Suspicious Node,360,NODE 42,Air,0
 Suspicious Node,361,NODE 43,Air,0
 Suspicious Node,362,NODE 44,Air,0
 Suspicious Node,363,NODE 5,Air,0
 Suspicious Node,364,NODE 6,Air,0
 Suspicious Node,365,NODE 7,Air,0
 Suspicious Node,366,NODE 8,Air,0
 Suspicious Node,367,NODE 9,Air,0
! ===============================================================
! <#Branch Lists>,<Number of Branch Lists>
 #Branch Lists,2
! <Branch List>,<Branch List Count>,<Branch List Name>,<Loop Name>,<Loop Type>,<Number of Branches>
! <Branch>,<Branch Count>,<Branch Name>,<Loop Name>,<Loop Type>,<Branch Inlet Node Name>,<Branch Outlet Node Name>
 Branch List,1,SERVICE WATER LOOP SUPPLY BRANCHES,SERVICE WATER LOOP,Plant Supply,3
   Branch,1,SERVICE WATER LOOP SUPPLY INLET BRANCH,SERVICE WATER LOOP,Plant Supply,NODE 45,NODE 51
   Branch,2,SERVICE WATER LOOP SUPPLY BRANCH 1,SERVICE WATER LOOP,Plant Supply,NODE 47,NODE 52
   Branch,3,SERVICE WATER LOOP SUPPLY OUTLET BRANCH,SERVICE WATER LOOP,Plant Supply,SERVICE WATER LOOP SUPPLY OUTLET PIPE NODE,NODE 46
 Branch List,2,SERVICE WATER LOOP DEMAND BRANCHES,SERVICE WATER LOOP,Plant Demand,4
   Branch,1,SERVICE WATER LOOP DEMAND INLET BRANCH,SERVICE WATER LOOP,Plant Demand,NODE 48,SERVICE WATER LOOP DEMAND INLET PIPE NODE
   Branch,2,SERVICE WATER LOOP DEMAND BRANCH 1,SERVICE WATER LOOP,Plant Demand,NODE 50,NODE 53
   Branch,3,SERVICE WATER LOOP DEMAND BYPASS BRANCH,SERVICE WATER LOOP,Plant Demand,SERVICE WATER LOOP DEMAND BYPASS PIPE INLET NODE,SERVICE WATER LOOP DEMAND BYPASS PIPE OUTLET NODE
   Branch,4,SERVICE WATER LOOP DEMAND OUTLET BRANCH,SERVICE WATER LOOP,Plant Demand,SERVICE WATER LOOP DEMAND OUTLET PIPE NODE,NODE 49
! ===============================================================
! <#Supply Air Paths>,<Number of Supply Air Paths>
 #Supply Air Paths,0
! <Supply Air Path>,<Supply Air Path Count>,<Supply Air Path Name>,<AirLoopHVAC Name>
! <#Components on Supply Air Path>,<Number of Components>
! <Supply Air Path Component>,<Component Count>,<Component Type>,<Component Name>,<AirLoopHVAC Name>
! <#Outlet Nodes on Supply Air Path Component>,<Number of Nodes>
! <Supply Air Path Component Nodes>,<Node Count>,<Component Type>,<Component Name>,<Inlet Node Name>,<Outlet Node Name>,<AirLoopHVAC Name>
! ===============================================================
! <#Return Air Paths>,<Number of Return Air Paths>
 #Return Air Paths,0
! <Return Air Path>,<Return Air Path Count>,<Return Air Path Name>,<AirLoopHVAC Name>
! <#Components on Return Air Path>,<Number of Components>
! <Return Air Path Component>,<Component Count>,<Component Type>,<Component Name>,<AirLoopHVAC Name>
! <#Inlet Nodes on Return Air Path Component>,<Number of Nodes>
! <Return Air Path Component Nodes>,<Node Count>,<Component Type>,<Component Name>,<Inlet Node Name>,<Outlet Node Name>,<AirLoopHVAC Name>
! ===============================================================
! #Outdoor Air Nodes,<Number of Outdoor Air Nodes>
 #Outdoor Air Nodes,45
! <Outdoor Air Node>,<NodeNumber>,<Node Name>
 Outdoor Air Node,103,PTHP OA NODE
 Outdoor Air Node,104,PTHP 40 OA NODE
 Outdoor Air Node,105,PTHP 41 OA NODE
 Outdoor Air Node,106,PTHP 42 OA NODE
 Outdoor Air Node,107,PTHP 38 OA NODE
 Outdoor Air Node,108,PTHP 43 OA NODE
 Outdoor Air Node,109,PTHP 34 OA NODE
 Outdoor Air Node,110,PTHP 33 OA NODE
 Outdoor Air Node,111,PTHP 37 OA NODE
 Outdoor Air Node,112,PTHP 36 OA NODE
 Outdoor Air Node,113,PTHP 35 OA NODE
 Outdoor Air Node,114,PTHP 28 OA NODE
 Outdoor Air Node,115,PTHP 3 OA NODE
 Outdoor Air Node,116,PTHP 22 OA NODE
 Outdoor Air Node,117,PTHP 7 OA NODE
 Outdoor Air Node,118,PTHP 12 OA NODE
 Outdoor Air Node,119,PTHP 2 OA NODE
 Outdoor Air Node,120,PTHP 24 OA NODE
 Outdoor Air Node,121,PTHP 16 OA NODE
 Outdoor Air Node,122,PTHP 8 OA NODE
 Outdoor Air Node,123,PTHP 19 OA NODE
 Outdoor Air Node,124,PTHP 13 OA NODE
 Outdoor Air Node,125,PTHP 29 OA NODE
 Outdoor Air Node,126,PTHP 14 OA NODE
 Outdoor Air Node,127,PTHP 17 OA NODE
 Outdoor Air Node,128,PTHP 20 OA NODE
 Outdoor Air Node,129,PTHP 4 OA NODE
 Outdoor Air Node,130,PTHP 15 OA NODE
 Outdoor Air Node,131,PTHP 9 OA NODE
 Outdoor Air Node,132,PTHP 11 OA NODE
 Outdoor Air Node,133,PTHP 18 OA NODE
 Outdoor Air Node,134,PTHP 5 OA NODE
 Outdoor Air Node,135,PTHP 6 OA NODE
 Outdoor Air Node,136,PTHP 31 OA NODE
 Outdoor Air Node,137,PTHP 25 OA NODE
 Outdoor Air Node,138,PTHP 23 OA NODE
 Outdoor Air Node,139,PTHP 21 OA NODE
 Outdoor Air Node,140,PTHP 10 OA NODE
 Outdoor Air Node,141,PTHP 1 OA NODE
 Outdoor Air Node,142,PTHP 27 OA NODE
 Outdoor Air Node,143,PTHP 26 OA NODE
 Outdoor Air Node,144,PTHP 30 OA NODE
 Outdoor Air Node,145,PTHP 32 OA NODE
 Outdoor Air Node,146,PTHP 39 OA NODE
 Outdoor Air Node,147,MODEL OUTDOOR AIR NODE
! ===============================================================
! <#Component Sets>,<Number of Component Sets>
 #Component Sets,227
! <Component Set>,<Component Set Count>,<Parent Object Type>,<Parent Object Name>,<Component Type>,<Component Name>,<Inlet Node ID>,<Outlet Node ID>,<Description>
 Component Set,1,BRANCH,SERVICE WATER LOOP SUPPLY INLET BRANCH,PUMP:CONSTANTSPEED,PUMP CONSTANT SPEED 1,NODE 45,NODE 51,Water Nodes
 Component Set,2,BRANCH,SERVICE WATER LOOP SUPPLY BRANCH 1,WATERHEATER:MIXED,600 GAL WATER HEATER - 600 KBTU/HR,NODE 47,NODE 52,Use Side Water Nodes
 Component Set,3,BRANCH,SERVICE WATER LOOP SUPPLY OUTLET BRANCH,PIPE:ADIABATIC,SERVICE WATER LOOP SUPPLY OUTLET PIPE,SERVICE WATER LOOP SUPPLY OUTLET PIPE NODE,NODE 46,Pipe Nodes
 Component Set,4,BRANCH,SERVICE WATER LOOP DEMAND INLET BRANCH,PIPE:ADIABATIC,SERVICE WATER LOOP DEMAND INLET PIPE,NODE 48,SERVICE WATER LOOP DEMAND INLET PIPE NODE,Pipe Nodes
 Component Set,5,BRANCH,SERVICE WATER LOOP DEMAND BRANCH 1,WATERUSE:CONNECTIONS,WATER USE CONNECTION,NODE 50,NODE 53,DHW Nodes
 Component Set,6,BRANCH,SERVICE WATER LOOP DEMAND BYPASS BRANCH,PIPE:ADIABATIC,SERVICE WATER LOOP DEMAND BYPASS PIPE,SERVICE WATER LOOP DEMAND BYPASS PIPE INLET NODE,SERVICE WATER LOOP DEMAND BYPASS PIPE OUTLET NODE,Pipe Nodes
 Component Set,7,BRANCH,SERVICE WATER LOOP DEMAND OUTLET BRANCH,PIPE:ADIABATIC,SERVICE WATER LOOP DEMAND OUTLET PIPE,SERVICE WATER LOOP DEMAND OUTLET PIPE NODE,NODE 49,Pipe Nodes
 Component Set,8,ZONEHVAC:PACKAGEDTERMINALHEATPUMP,PTHP,COIL:COOLING:DX:SINGLESPEED,PTHP 1 SPD DX CLG COIL,PTHP MIXED AIR NODE,PTHP COOLING COIL OUTLET NODE,Air Nodes
 Component Set,9,ZONEHVAC:PACKAGEDTERMINALHEATPUMP,PTHP 40,COIL:COOLING:DX:SINGLESPEED,PTHP 1 SPD DX CLG COIL 40,PTHP 40 MIXED AIR NODE,PTHP 40 COOLING COIL OUTLET NODE,Air Nodes
 Component Set,10,ZONEHVAC:PACKAGEDTERMINALHEATPUMP,PTHP 41,COIL:COOLING:DX:SINGLESPEED,PTHP 1 SPD DX CLG COIL 41,PTHP 41 MIXED AIR NODE,PTHP 41 COOLING COIL OUTLET NODE,Air Nodes
 Component Set,11,ZONEHVAC:PACKAGEDTERMINALHEATPUMP,PTHP 42,COIL:COOLING:DX:SINGLESPEED,PTHP 1 SPD DX CLG COIL 42,PTHP 42 MIXED AIR NODE,PTHP 42 COOLING COIL OUTLET NODE,Air Nodes
 Component Set,12,ZONEHVAC:PACKAGEDTERMINALHEATPUMP,PTHP 38,COIL:COOLING:DX:SINGLESPEED,PTHP 1 SPD DX CLG COIL 38,PTHP 38 MIXED AIR NODE,PTHP 38 COOLING COIL OUTLET NODE,Air Nodes
 Component Set,13,ZONEHVAC:PACKAGEDTERMINALHEATPUMP,PTHP 43,COIL:COOLING:DX:SINGLESPEED,PTHP 1 SPD DX CLG COIL 43,PTHP 43 MIXED AIR NODE,PTHP 43 COOLING COIL OUTLET NODE,Air Nodes
 Component Set,14,ZONEHVAC:PACKAGEDTERMINALHEATPUMP,PTHP 34,COIL:COOLING:DX:SINGLESPEED,PTHP 1 SPD DX CLG COIL 34,PTHP 34 MIXED AIR NODE,PTHP 34 COOLING COIL OUTLET NODE,Air Nodes
 Component Set,15,ZONEHVAC:PACKAGEDTERMINALHEATPUMP,PTHP 33,COIL:COOLING:DX:SINGLESPEED,PTHP 1 SPD DX CLG COIL 33,PTHP 33 MIXED AIR NODE,PTHP 33 COOLING COIL OUTLET NODE,Air Nodes
 Component Set,16,ZONEHVAC:PACKAGEDTERMINALHEATPUMP,PTHP 37,COIL:COOLING:DX:SINGLESPEED,PTHP 1 SPD DX CLG COIL 37,PTHP 37 MIXED AIR NODE,PTHP 37 COOLING COIL OUTLET NODE,Air Nodes
 Component Set,17,ZONEHVAC:PACKAGEDTERMINALHEATPUMP,PTHP 36,COIL:COOLING:DX:SINGLESPEED,PTHP 1 SPD DX CLG COIL 36,PTHP 36 MIXED AIR NODE,PTHP 36 COOLING COIL OUTLET NODE,Air Nodes
 Component Set,18,ZONEHVAC:PACKAGEDTERMINALHEATPUMP,PTHP 35,COIL:COOLING:DX:SINGLESPEED,PTHP 1 SPD DX CLG COIL 35,PTHP 35 MIXED AIR NODE,PTHP 35 COOLING COIL OUTLET NODE,Air Nodes
 Component Set,19,ZONEHVAC:PACKAGEDTERMINALHEATPUMP,PTHP 28,COIL:COOLING:DX:SINGLESPEED,PTHP 1 SPD DX CLG COIL 28,PTHP 28 MIXED AIR NODE,PTHP 28 COOLING COIL OUTLET NODE,Air Nodes
 Component Set,20,ZONEHVAC:PACKAGEDTERMINALHEATPUMP,PTHP 3,COIL:COOLING:DX:SINGLESPEED,PTHP 1 SPD DX CLG COIL 3,PTHP 3 MIXED AIR NODE,PTHP 3 COOLING COIL OUTLET NODE,Air Nodes
 Component Set,21,ZONEHVAC:PACKAGEDTERMINALHEATPUMP,PTHP 22,COIL:COOLING:DX:SINGLESPEED,PTHP 1 SPD DX CLG COIL 22,PTHP 22 MIXED AIR NODE,PTHP 22 COOLING COIL OUTLET NODE,Air Nodes
 Component Set,22,ZONEHVAC:PACKAGEDTERMINALHEATPUMP,PTHP 7,COIL:COOLING:DX:SINGLESPEED,PTHP 1 SPD DX CLG COIL 7,PTHP 7 MIXED AIR NODE,PTHP 7 COOLING COIL OUTLET NODE,Air Nodes
 Component Set,23,ZONEHVAC:PACKAGEDTERMINALHEATPUMP,PTHP 12,COIL:COOLING:DX:SINGLESPEED,PTHP 1 SPD DX CLG COIL 12,PTHP 12 MIXED AIR NODE,PTHP 12 COOLING COIL OUTLET NODE,Air Nodes
 Component Set,24,ZONEHVAC:PACKAGEDTERMINALHEATPUMP,PTHP 2,COIL:COOLING:DX:SINGLESPEED,PTHP 1 SPD DX CLG COIL 2,PTHP 2 MIXED AIR NODE,PTHP 2 COOLING COIL OUTLET NODE,Air Nodes
 Component Set,25,ZONEHVAC:PACKAGEDTERMINALHEATPUMP,PTHP 24,COIL:COOLING:DX:SINGLESPEED,PTHP 1 SPD DX CLG COIL 24,PTHP 24 MIXED AIR NODE,PTHP 24 COOLING COIL OUTLET NODE,Air Nodes
 Component Set,26,ZONEHVAC:PACKAGEDTERMINALHEATPUMP,PTHP 16,COIL:COOLING:DX:SINGLESPEED,PTHP 1 SPD DX CLG COIL 16,PTHP 16 MIXED AIR NODE,PTHP 16 COOLING COIL OUTLET NODE,Air Nodes
 Component Set,27,ZONEHVAC:PACKAGEDTERMINALHEATPUMP,PTHP 8,COIL:COOLING:DX:SINGLESPEED,PTHP 1 SPD DX CLG COIL 8,PTHP 8 MIXED AIR NODE,PTHP 8 COOLING COIL OUTLET NODE,Air Nodes
 Component Set,28,ZONEHVAC:PACKAGEDTERMINALHEATPUMP,PTHP 19,COIL:COOLING:DX:SINGLESPEED,PTHP 1 SPD DX CLG COIL 19,PTHP 19 MIXED AIR NODE,PTHP 19 COOLING COIL OUTLET NODE,Air Nodes
 Component Set,29,ZONEHVAC:PACKAGEDTERMINALHEATPUMP,PTHP 13,COIL:COOLING:DX:SINGLESPEED,PTHP 1 SPD DX CLG COIL 13,PTHP 13 MIXED AIR NODE,PTHP 13 COOLING COIL OUTLET NODE,Air Nodes
 Component Set,30,ZONEHVAC:PACKAGEDTERMINALHEATPUMP,PTHP 29,COIL:COOLING:DX:SINGLESPEED,PTHP 1 SPD DX CLG COIL 29,PTHP 29 MIXED AIR NODE,PTHP 29 COOLING COIL OUTLET NODE,Air Nodes
 Component Set,31,ZONEHVAC:PACKAGEDTERMINALHEATPUMP,PTHP 14,COIL:COOLING:DX:SINGLESPEED,PTHP 1 SPD DX CLG COIL 14,PTHP 14 MIXED AIR NODE,PTHP 14 COOLING COIL OUTLET NODE,Air Nodes
 Component Set,32,ZONEHVAC:PACKAGEDTERMINALHEATPUMP,PTHP 17,COIL:COOLING:DX:SINGLESPEED,PTHP 1 SPD DX CLG COIL 17,PTHP 17 MIXED AIR NODE,PTHP 17 COOLING COIL OUTLET NODE,Air Nodes
 Component Set,33,ZONEHVAC:PACKAGEDTERMINALHEATPUMP,PTHP 20,COIL:COOLING:DX:SINGLESPEED,PTHP 1 SPD DX CLG COIL 20,PTHP 20 MIXED AIR NODE,PTHP 20 COOLING COIL OUTLET NODE,Air Nodes
 Component Set,34,ZONEHVAC:PACKAGEDTERMINALHEATPUMP,PTHP 4,COIL:COOLING:DX:SINGLESPEED,PTHP 1 SPD DX CLG COIL 4,PTHP 4 MIXED AIR NODE,PTHP 4 COOLING COIL OUTLET NODE,Air Nodes
 Component Set,35,ZONEHVAC:PACKAGEDTERMINALHEATPUMP,PTHP 15,COIL:COOLING:DX:SINGLESPEED,PTHP 1 SPD DX CLG COIL 15,PTHP 15 MIXED AIR NODE,PTHP 15 COOLING COIL OUTLET NODE,Air Nodes
 Component Set,36,ZONEHVAC:PACKAGEDTERMINALHEATPUMP,PTHP 9,COIL:COOLING:DX:SINGLESPEED,PTHP 1 SPD DX CLG COIL 9,PTHP 9 MIXED AIR NODE,PTHP 9 COOLING COIL OUTLET NODE,Air Nodes
 Component Set,37,ZONEHVAC:PACKAGEDTERMINALHEATPUMP,PTHP 11,COIL:COOLING:DX:SINGLESPEED,PTHP 1 SPD DX CLG COIL 11,PTHP 11 MIXED AIR NODE,PTHP 11 COOLING COIL OUTLET NODE,Air Nodes
 Component Set,38,ZONEHVAC:PACKAGEDTERMINALHEATPUMP,PTHP 18,COIL:COOLING:DX:SINGLESPEED,PTHP 1 SPD DX CLG COIL 18,PTHP 18 MIXED AIR NODE,PTHP 18 COOLING COIL OUTLET NODE,Air Nodes
 Component Set,39,ZONEHVAC:PACKAGEDTERMINALHEATPUMP,PTHP 5,COIL:COOLING:DX:SINGLESPEED,PTHP 1 SPD DX CLG COIL 5,PTHP 5 MIXED AIR NODE,PTHP 5 COOLING COIL OUTLET NODE,Air Nodes
 Component Set,40,ZONEHVAC:PACKAGEDTERMINALHEATPUMP,PTHP 6,COIL:COOLING:DX:SINGLESPEED,PTHP 1 SPD DX CLG COIL 6,PTHP 6 MIXED AIR NODE,PTHP 6 COOLING COIL OUTLET NODE,Air Nodes
 Component Set,41,ZONEHVAC:PACKAGEDTERMINALHEATPUMP,PTHP 31,COIL:COOLING:DX:SINGLESPEED,PTHP 1 SPD DX CLG COIL 31,PTHP 31 MIXED AIR NODE,PTHP 31 COOLING COIL OUTLET NODE,Air Nodes
 Component Set,42,ZONEHVAC:PACKAGEDTERMINALHEATPUMP,PTHP 25,COIL:COOLING:DX:SINGLESPEED,PTHP 1 SPD DX CLG COIL 25,PTHP 25 MIXED AIR NODE,PTHP 25 COOLING COIL OUTLET NODE,Air Nodes
 Component Set,43,ZONEHVAC:PACKAGEDTERMINALHEATPUMP,PTHP 23,COIL:COOLING:DX:SINGLESPEED,PTHP 1 SPD DX CLG COIL 23,PTHP 23 MIXED AIR NODE,PTHP 23 COOLING COIL OUTLET NODE,Air Nodes
 Component Set,44,ZONEHVAC:PACKAGEDTERMINALHEATPUMP,PTHP 21,COIL:COOLING:DX:SINGLESPEED,PTHP 1 SPD DX CLG COIL 21,PTHP 21 MIXED AIR NODE,PTHP 21 COOLING COIL OUTLET NODE,Air Nodes
 Component Set,45,ZONEHVAC:PACKAGEDTERMINALHEATPUMP,PTHP 10,COIL:COOLING:DX:SINGLESPEED,PTHP 1 SPD DX CLG COIL 10,PTHP 10 MIXED AIR NODE,PTHP 10 COOLING COIL OUTLET NODE,Air Nodes
 Component Set,46,ZONEHVAC:PACKAGEDTERMINALHEATPUMP,PTHP 1,COIL:COOLING:DX:SINGLESPEED,PTHP 1 SPD DX CLG COIL 1,PTHP 1 MIXED AIR NODE,PTHP 1 COOLING COIL OUTLET NODE,Air Nodes
 Component Set,47,ZONEHVAC:PACKAGEDTERMINALHEATPUMP,PTHP 27,COIL:COOLING:DX:SINGLESPEED,PTHP 1 SPD DX CLG COIL 27,PTHP 27 MIXED AIR NODE,PTHP 27 COOLING COIL OUTLET NODE,Air Nodes
 Component Set,48,ZONEHVAC:PACKAGEDTERMINALHEATPUMP,PTHP 26,COIL:COOLING:DX:SINGLESPEED,PTHP 1 SPD DX CLG COIL 26,PTHP 26 MIXED AIR NODE,PTHP 26 COOLING COIL OUTLET NODE,Air Nodes
 Component Set,49,ZONEHVAC:PACKAGEDTERMINALHEATPUMP,PTHP 30,COIL:COOLING:DX:SINGLESPEED,PTHP 1 SPD DX CLG COIL 30,PTHP 30 MIXED AIR NODE,PTHP 30 COOLING COIL OUTLET NODE,Air Nodes
 Component Set,50,ZONEHVAC:PACKAGEDTERMINALHEATPUMP,PTHP 32,COIL:COOLING:DX:SINGLESPEED,PTHP 1 SPD DX CLG COIL 32,PTHP 32 MIXED AIR NODE,PTHP 32 COOLING COIL OUTLET NODE,Air Nodes
 Component Set,51,ZONEHVAC:PACKAGEDTERMINALHEATPUMP,PTHP 39,COIL:COOLING:DX:SINGLESPEED,PTHP 1 SPD DX CLG COIL 39,PTHP 39 MIXED AIR NODE,PTHP 39 COOLING COIL OUTLET NODE,Air Nodes
 Component Set,52,ZONEHVAC:PACKAGEDTERMINALHEATPUMP,PTHP,COIL:HEATING:DX:SINGLESPEED,PTHP 1 SPD DX HTG COIL,PTHP COOLING COIL OUTLET NODE,PTHP HEATING COIL OUTLET NODE,Air Nodes
 Component Set,53,ZONEHVAC:PACKAGEDTERMINALHEATPUMP,PTHP 40,COIL:HEATING:DX:SINGLESPEED,PTHP 1 SPD DX HTG COIL 40,PTHP 40 COOLING COIL OUTLET NODE,PTHP 40 HEATING COIL OUTLET NODE,Air Nodes
 Component Set,54,ZONEHVAC:PACKAGEDTERMINALHEATPUMP,PTHP 41,COIL:HEATING:DX:SINGLESPEED,PTHP 1 SPD DX HTG COIL 41,PTHP 41 COOLING COIL OUTLET NODE,PTHP 41 HEATING COIL OUTLET NODE,Air Nodes
 Component Set,55,ZONEHVAC:PACKAGEDTERMINALHEATPUMP,PTHP 42,COIL:HEATING:DX:SINGLESPEED,PTHP 1 SPD DX HTG COIL 42,PTHP 42 COOLING COIL OUTLET NODE,PTHP 42 HEATING COIL OUTLET NODE,Air Nodes
 Component Set,56,ZONEHVAC:PACKAGEDTERMINALHEATPUMP,PTHP 38,COIL:HEATING:DX:SINGLESPEED,PTHP 1 SPD DX HTG COIL 38,PTHP 38 COOLING COIL OUTLET NODE,PTHP 38 HEATING COIL OUTLET NODE,Air Nodes
 Component Set,57,ZONEHVAC:PACKAGEDTERMINALHEATPUMP,PTHP 43,COIL:HEATING:DX:SINGLESPEED,PTHP 1 SPD DX HTG COIL 43,PTHP 43 COOLING COIL OUTLET NODE,PTHP 43 HEATING COIL OUTLET NODE,Air Nodes
 Component Set,58,ZONEHVAC:PACKAGEDTERMINALHEATPUMP,PTHP 34,COIL:HEATING:DX:SINGLESPEED,PTHP 1 SPD DX HTG COIL 34,PTHP 34 COOLING COIL OUTLET NODE,PTHP 34 HEATING COIL OUTLET NODE,Air Nodes
 Component Set,59,ZONEHVAC:PACKAGEDTERMINALHEATPUMP,PTHP 33,COIL:HEATING:DX:SINGLESPEED,PTHP 1 SPD DX HTG COIL 33,PTHP 33 COOLING COIL OUTLET NODE,PTHP 33 HEATING COIL OUTLET NODE,Air Nodes
 Component Set,60,ZONEHVAC:PACKAGEDTERMINALHEATPUMP,PTHP 37,COIL:HEATING:DX:SINGLESPEED,PTHP 1 SPD DX HTG COIL 37,PTHP 37 COOLING COIL OUTLET NODE,PTHP 37 HEATING COIL OUTLET NODE,Air Nodes
 Component Set,61,ZONEHVAC:PACKAGEDTERMINALHEATPUMP,PTHP 36,COIL:HEATING:DX:SINGLESPEED,PTHP 1 SPD DX HTG COIL 36,PTHP 36 COOLING COIL OUTLET NODE,PTHP 36 HEATING COIL OUTLET NODE,Air Nodes
 Component Set,62,ZONEHVAC:PACKAGEDTERMINALHEATPUMP,PTHP 35,COIL:HEATING:DX:SINGLESPEED,PTHP 1 SPD DX HTG COIL 35,PTHP 35 COOLING COIL OUTLET NODE,PTHP 35 HEATING COIL OUTLET NODE,Air Nodes
 Component Set,63,ZONEHVAC:PACKAGEDTERMINALHEATPUMP,PTHP 28,COIL:HEATING:DX:SINGLESPEED,PTHP 1 SPD DX HTG COIL 28,PTHP 28 COOLING COIL OUTLET NODE,PTHP 28 HEATING COIL OUTLET NODE,Air Nodes
 Component Set,64,ZONEHVAC:PACKAGEDTERMINALHEATPUMP,PTHP 3,COIL:HEATING:DX:SINGLESPEED,PTHP 1 SPD DX HTG COIL 3,PTHP 3 COOLING COIL OUTLET NODE,PTHP 3 HEATING COIL OUTLET NODE,Air Nodes
 Component Set,65,ZONEHVAC:PACKAGEDTERMINALHEATPUMP,PTHP 22,COIL:HEATING:DX:SINGLESPEED,PTHP 1 SPD DX HTG COIL 22,PTHP 22 COOLING COIL OUTLET NODE,PTHP 22 HEATING COIL OUTLET NODE,Air Nodes
 Component Set,66,ZONEHVAC:PACKAGEDTERMINALHEATPUMP,PTHP 7,COIL:HEATING:DX:SINGLESPEED,PTHP 1 SPD DX HTG COIL 7,PTHP 7 COOLING COIL OUTLET NODE,PTHP 7 HEATING COIL OUTLET NODE,Air Nodes
 Component Set,67,ZONEHVAC:PACKAGEDTERMINALHEATPUMP,PTHP 12,COIL:HEATING:DX:SINGLESPEED,PTHP 1 SPD DX HTG COIL 12,PTHP 12 COOLING COIL OUTLET NODE,PTHP 12 HEATING COIL OUTLET NODE,Air Nodes
 Component Set,68,ZONEHVAC:PACKAGEDTERMINALHEATPUMP,PTHP 2,COIL:HEATING:DX:SINGLESPEED,PTHP 1 SPD DX HTG COIL 2,PTHP 2 COOLING COIL OUTLET NODE,PTHP 2 HEATING COIL OUTLET NODE,Air Nodes
 Component Set,69,ZONEHVAC:PACKAGEDTERMINALHEATPUMP,PTHP 24,COIL:HEATING:DX:SINGLESPEED,PTHP 1 SPD DX HTG COIL 24,PTHP 24 COOLING COIL OUTLET NODE,PTHP 24 HEATING COIL OUTLET NODE,Air Nodes
 Component Set,70,ZONEHVAC:PACKAGEDTERMINALHEATPUMP,PTHP 16,COIL:HEATING:DX:SINGLESPEED,PTHP 1 SPD DX HTG COIL 16,PTHP 16 COOLING COIL OUTLET NODE,PTHP 16 HEATING COIL OUTLET NODE,Air Nodes
 Component Set,71,ZONEHVAC:PACKAGEDTERMINALHEATPUMP,PTHP 8,COIL:HEATING:DX:SINGLESPEED,PTHP 1 SPD DX HTG COIL 8,PTHP 8 COOLING COIL OUTLET NODE,PTHP 8 HEATING COIL OUTLET NODE,Air Nodes
 Component Set,72,ZONEHVAC:PACKAGEDTERMINALHEATPUMP,PTHP 19,COIL:HEATING:DX:SINGLESPEED,PTHP 1 SPD DX HTG COIL 19,PTHP 19 COOLING COIL OUTLET NODE,PTHP 19 HEATING COIL OUTLET NODE,Air Nodes
 Component Set,73,ZONEHVAC:PACKAGEDTERMINALHEATPUMP,PTHP 13,COIL:HEATING:DX:SINGLESPEED,PTHP 1 SPD DX HTG COIL 13,PTHP 13 COOLING COIL OUTLET NODE,PTHP 13 HEATING COIL OUTLET NODE,Air Nodes
 Component Set,74,ZONEHVAC:PACKAGEDTERMINALHEATPUMP,PTHP 29,COIL:HEATING:DX:SINGLESPEED,PTHP 1 SPD DX HTG COIL 29,PTHP 29 COOLING COIL OUTLET NODE,PTHP 29 HEATING COIL OUTLET NODE,Air Nodes
 Component Set,75,ZONEHVAC:PACKAGEDTERMINALHEATPUMP,PTHP 14,COIL:HEATING:DX:SINGLESPEED,PTHP 1 SPD DX HTG COIL 14,PTHP 14 COOLING COIL OUTLET NODE,PTHP 14 HEATING COIL OUTLET NODE,Air Nodes
 Component Set,76,ZONEHVAC:PACKAGEDTERMINALHEATPUMP,PTHP 17,COIL:HEATING:DX:SINGLESPEED,PTHP 1 SPD DX HTG COIL 17,PTHP 17 COOLING COIL OUTLET NODE,PTHP 17 HEATING COIL OUTLET NODE,Air Nodes
 Component Set,77,ZONEHVAC:PACKAGEDTERMINALHEATPUMP,PTHP 20,COIL:HEATING:DX:SINGLESPEED,PTHP 1 SPD DX HTG COIL 20,PTHP 20 COOLING COIL OUTLET NODE,PTHP 20 HEATING COIL OUTLET NODE,Air Nodes
 Component Set,78,ZONEHVAC:PACKAGEDTERMINALHEATPUMP,PTHP 4,COIL:HEATING:DX:SINGLESPEED,PTHP 1 SPD DX HTG COIL 4,PTHP 4 COOLING COIL OUTLET NODE,PTHP 4 HEATING COIL OUTLET NODE,Air Nodes
 Component Set,79,ZONEHVAC:PACKAGEDTERMINALHEATPUMP,PTHP 15,COIL:HEATING:DX:SINGLESPEED,PTHP 1 SPD DX HTG COIL 15,PTHP 15 COOLING COIL OUTLET NODE,PTHP 15 HEATING COIL OUTLET NODE,Air Nodes
 Component Set,80,ZONEHVAC:PACKAGEDTERMINALHEATPUMP,PTHP 9,COIL:HEATING:DX:SINGLESPEED,PTHP 1 SPD DX HTG COIL 9,PTHP 9 COOLING COIL OUTLET NODE,PTHP 9 HEATING COIL OUTLET NODE,Air Nodes
 Component Set,81,ZONEHVAC:PACKAGEDTERMINALHEATPUMP,PTHP 11,COIL:HEATING:DX:SINGLESPEED,PTHP 1 SPD DX HTG COIL 11,PTHP 11 COOLING COIL OUTLET NODE,PTHP 11 HEATING COIL OUTLET NODE,Air Nodes
 Component Set,82,ZONEHVAC:PACKAGEDTERMINALHEATPUMP,PTHP 18,COIL:HEATING:DX:SINGLESPEED,PTHP 1 SPD DX HTG COIL 18,PTHP 18 COOLING COIL OUTLET NODE,PTHP 18 HEATING COIL OUTLET NODE,Air Nodes
 Component Set,83,ZONEHVAC:PACKAGEDTERMINALHEATPUMP,PTHP 5,COIL:HEATING:DX:SINGLESPEED,PTHP 1 SPD DX HTG COIL 5,PTHP 5 COOLING COIL OUTLET NODE,PTHP 5 HEATING COIL OUTLET NODE,Air Nodes
 Component Set,84,ZONEHVAC:PACKAGEDTERMINALHEATPUMP,PTHP 6,COIL:HEATING:DX:SINGLESPEED,PTHP 1 SPD DX HTG COIL 6,PTHP 6 COOLING COIL OUTLET NODE,PTHP 6 HEATING COIL OUTLET NODE,Air Nodes
 Component Set,85,ZONEHVAC:PACKAGEDTERMINALHEATPUMP,PTHP 31,COIL:HEATING:DX:SINGLESPEED,PTHP 1 SPD DX HTG COIL 31,PTHP 31 COOLING COIL OUTLET NODE,PTHP 31 HEATING COIL OUTLET NODE,Air Nodes
 Component Set,86,ZONEHVAC:PACKAGEDTERMINALHEATPUMP,PTHP 25,COIL:HEATING:DX:SINGLESPEED,PTHP 1 SPD DX HTG COIL 25,PTHP 25 COOLING COIL OUTLET NODE,PTHP 25 HEATING COIL OUTLET NODE,Air Nodes
 Component Set,87,ZONEHVAC:PACKAGEDTERMINALHEATPUMP,PTHP 23,COIL:HEATING:DX:SINGLESPEED,PTHP 1 SPD DX HTG COIL 23,PTHP 23 COOLING COIL OUTLET NODE,PTHP 23 HEATING COIL OUTLET NODE,Air Nodes
 Component Set,88,ZONEHVAC:PACKAGEDTERMINALHEATPUMP,PTHP 21,COIL:HEATING:DX:SINGLESPEED,PTHP 1 SPD DX HTG COIL 21,PTHP 21 COOLING COIL OUTLET NODE,PTHP 21 HEATING COIL OUTLET NODE,Air Nodes
 Component Set,89,ZONEHVAC:PACKAGEDTERMINALHEATPUMP,PTHP 10,COIL:HEATING:DX:SINGLESPEED,PTHP 1 SPD DX HTG COIL 10,PTHP 10 COOLING COIL OUTLET NODE,PTHP 10 HEATING COIL OUTLET NODE,Air Nodes
 Component Set,90,ZONEHVAC:PACKAGEDTERMINALHEATPUMP,PTHP 1,COIL:HEATING:DX:SINGLESPEED,PTHP 1 SPD DX HTG COIL 1,PTHP 1 COOLING COIL OUTLET NODE,PTHP 1 HEATING COIL OUTLET NODE,Air Nodes
 Component Set,91,ZONEHVAC:PACKAGEDTERMINALHEATPUMP,PTHP 27,COIL:HEATING:DX:SINGLESPEED,PTHP 1 SPD DX HTG COIL 27,PTHP 27 COOLING COIL OUTLET NODE,PTHP 27 HEATING COIL OUTLET NODE,Air Nodes
 Component Set,92,ZONEHVAC:PACKAGEDTERMINALHEATPUMP,PTHP 26,COIL:HEATING:DX:SINGLESPEED,PTHP 1 SPD DX HTG COIL 26,PTHP 26 COOLING COIL OUTLET NODE,PTHP 26 HEATING COIL OUTLET NODE,Air Nodes
 Component Set,93,ZONEHVAC:PACKAGEDTERMINALHEATPUMP,PTHP 30,COIL:HEATING:DX:SINGLESPEED,PTHP 1 SPD DX HTG COIL 30,PTHP 30 COOLING COIL OUTLET NODE,PTHP 30 HEATING COIL OUTLET NODE,Air Nodes
 Component Set,94,ZONEHVAC:PACKAGEDTERMINALHEATPUMP,PTHP 32,COIL:HEATING:DX:SINGLESPEED,PTHP 1 SPD DX HTG COIL 32,PTHP 32 COOLING COIL OUTLET NODE,PTHP 32 HEATING COIL OUTLET NODE,Air Nodes
 Component Set,95,ZONEHVAC:PACKAGEDTERMINALHEATPUMP,PTHP 39,COIL:HEATING:DX:SINGLESPEED,PTHP 1 SPD DX HTG COIL 39,PTHP 39 COOLING COIL OUTLET NODE,PTHP 39 HEATING COIL OUTLET NODE,Air Nodes
 Component Set,96,ZONEHVAC:PACKAGEDTERMINALHEATPUMP,PTHP,OUTDOORAIR:MIXER,PTHP OA MIXER,PTHP OA NODE,PTHP MIXED AIR NODE,Air Nodes
 Component Set,97,ZONEHVAC:PACKAGEDTERMINALHEATPUMP,PTHP 40,OUTDOORAIR:MIXER,PTHP 40 OA MIXER,PTHP 40 OA NODE,PTHP 40 MIXED AIR NODE,Air Nodes
 Component Set,98,ZONEHVAC:PACKAGEDTERMINALHEATPUMP,PTHP 41,OUTDOORAIR:MIXER,PTHP 41 OA MIXER,PTHP 41 OA NODE,PTHP 41 MIXED AIR NODE,Air Nodes
 Component Set,99,ZONEHVAC:PACKAGEDTERMINALHEATPUMP,PTHP 42,OUTDOORAIR:MIXER,PTHP 42 OA MIXER,PTHP 42 OA NODE,PTHP 42 MIXED AIR NODE,Air Nodes
 Component Set,100,ZONEHVAC:PACKAGEDTERMINALHEATPUMP,PTHP 38,OUTDOORAIR:MIXER,PTHP 38 OA MIXER,PTHP 38 OA NODE,PTHP 38 MIXED AIR NODE,Air Nodes
 Component Set,101,ZONEHVAC:PACKAGEDTERMINALHEATPUMP,PTHP 43,OUTDOORAIR:MIXER,PTHP 43 OA MIXER,PTHP 43 OA NODE,PTHP 43 MIXED AIR NODE,Air Nodes
 Component Set,102,ZONEHVAC:PACKAGEDTERMINALHEATPUMP,PTHP 34,OUTDOORAIR:MIXER,PTHP 34 OA MIXER,PTHP 34 OA NODE,PTHP 34 MIXED AIR NODE,Air Nodes
 Component Set,103,ZONEHVAC:PACKAGEDTERMINALHEATPUMP,PTHP 33,OUTDOORAIR:MIXER,PTHP 33 OA MIXER,PTHP 33 OA NODE,PTHP 33 MIXED AIR NODE,Air Nodes
 Component Set,104,ZONEHVAC:PACKAGEDTERMINALHEATPUMP,PTHP 37,OUTDOORAIR:MIXER,PTHP 37 OA MIXER,PTHP 37 OA NODE,PTHP 37 MIXED AIR NODE,Air Nodes
 Component Set,105,ZONEHVAC:PACKAGEDTERMINALHEATPUMP,PTHP 36,OUTDOORAIR:MIXER,PTHP 36 OA MIXER,PTHP 36 OA NODE,PTHP 36 MIXED AIR NODE,Air Nodes
 Component Set,106,ZONEHVAC:PACKAGEDTERMINALHEATPUMP,PTHP 35,OUTDOORAIR:MIXER,PTHP 35 OA MIXER,PTHP 35 OA NODE,PTHP 35 MIXED AIR NODE,Air Nodes
 Component Set,107,ZONEHVAC:PACKAGEDTERMINALHEATPUMP,PTHP 28,OUTDOORAIR:MIXER,PTHP 28 OA MIXER,PTHP 28 OA NODE,PTHP 28 MIXED AIR NODE,Air Nodes
 Component Set,108,ZONEHVAC:PACKAGEDTERMINALHEATPUMP,PTHP 3,OUTDOORAIR:MIXER,PTHP 3 OA MIXER,PTHP 3 OA NODE,PTHP 3 MIXED AIR NODE,Air Nodes
 Component Set,109,ZONEHVAC:PACKAGEDTERMINALHEATPUMP,PTHP 22,OUTDOORAIR:MIXER,PTHP 22 OA MIXER,PTHP 22 OA NODE,PTHP 22 MIXED AIR NODE,Air Nodes
 Component Set,110,ZONEHVAC:PACKAGEDTERMINALHEATPUMP,PTHP 7,OUTDOORAIR:MIXER,PTHP 7 OA MIXER,PTHP 7 OA NODE,PTHP 7 MIXED AIR NODE,Air Nodes
 Component Set,111,ZONEHVAC:PACKAGEDTERMINALHEATPUMP,PTHP 12,OUTDOORAIR:MIXER,PTHP 12 OA MIXER,PTHP 12 OA NODE,PTHP 12 MIXED AIR NODE,Air Nodes
 Component Set,112,ZONEHVAC:PACKAGEDTERMINALHEATPUMP,PTHP 2,OUTDOORAIR:MIXER,PTHP 2 OA MIXER,PTHP 2 OA NODE,PTHP 2 MIXED AIR NODE,Air Nodes
 Component Set,113,ZONEHVAC:PACKAGEDTERMINALHEATPUMP,PTHP 24,OUTDOORAIR:MIXER,PTHP 24 OA MIXER,PTHP 24 OA NODE,PTHP 24 MIXED AIR NODE,Air Nodes
 Component Set,114,ZONEHVAC:PACKAGEDTERMINALHEATPUMP,PTHP 16,OUTDOORAIR:MIXER,PTHP 16 OA MIXER,PTHP 16 OA NODE,PTHP 16 MIXED AIR NODE,Air Nodes
 Component Set,115,ZONEHVAC:PACKAGEDTERMINALHEATPUMP,PTHP 8,OUTDOORAIR:MIXER,PTHP 8 OA MIXER,PTHP 8 OA NODE,PTHP 8 MIXED AIR NODE,Air Nodes
 Component Set,116,ZONEHVAC:PACKAGEDTERMINALHEATPUMP,PTHP 19,OUTDOORAIR:MIXER,PTHP 19 OA MIXER,PTHP 19 OA NODE,PTHP 19 MIXED AIR NODE,Air Nodes
 Component Set,117,ZONEHVAC:PACKAGEDTERMINALHEATPUMP,PTHP 13,OUTDOORAIR:MIXER,PTHP 13 OA MIXER,PTHP 13 OA NODE,PTHP 13 MIXED AIR NODE,Air Nodes
 Component Set,118,ZONEHVAC:PACKAGEDTERMINALHEATPUMP,PTHP 29,OUTDOORAIR:MIXER,PTHP 29 OA MIXER,PTHP 29 OA NODE,PTHP 29 MIXED AIR NODE,Air Nodes
 Component Set,119,ZONEHVAC:PACKAGEDTERMINALHEATPUMP,PTHP 14,OUTDOORAIR:MIXER,PTHP 14 OA MIXER,PTHP 14 OA NODE,PTHP 14 MIXED AIR NODE,Air Nodes
 Component Set,120,ZONEHVAC:PACKAGEDTERMINALHEATPUMP,PTHP 17,OUTDOORAIR:MIXER,PTHP 17 OA MIXER,PTHP 17 OA NODE,PTHP 17 MIXED AIR NODE,Air Nodes
 Component Set,121,ZONEHVAC:PACKAGEDTERMINALHEATPUMP,PTHP 20,OUTDOORAIR:MIXER,PTHP 20 OA MIXER,PTHP 20 OA NODE,PTHP 20 MIXED AIR NODE,Air Nodes
 Component Set,122,ZONEHVAC:PACKAGEDTERMINALHEATPUMP,PTHP 4,OUTDOORAIR:MIXER,PTHP 4 OA MIXER,PTHP 4 OA NODE,PTHP 4 MIXED AIR NODE,Air Nodes
 Component Set,123,ZONEHVAC:PACKAGEDTERMINALHEATPUMP,PTHP 15,OUTDOORAIR:MIXER,PTHP 15 OA MIXER,PTHP 15 OA NODE,PTHP 15 MIXED AIR NODE,Air Nodes
 Component Set,124,ZONEHVAC:PACKAGEDTERMINALHEATPUMP,PTHP 9,OUTDOORAIR:MIXER,PTHP 9 OA MIXER,PTHP 9 OA NODE,PTHP 9 MIXED AIR NODE,Air Nodes
 Component Set,125,ZONEHVAC:PACKAGEDTERMINALHEATPUMP,PTHP 11,OUTDOORAIR:MIXER,PTHP 11 OA MIXER,PTHP 11 OA NODE,PTHP 11 MIXED AIR NODE,Air Nodes
 Component Set,126,ZONEHVAC:PACKAGEDTERMINALHEATPUMP,PTHP 18,OUTDOORAIR:MIXER,PTHP 18 OA MIXER,PTHP 18 OA NODE,PTHP 18 MIXED AIR NODE,Air Nodes
 Component Set,127,ZONEHVAC:PACKAGEDTERMINALHEATPUMP,PTHP 5,OUTDOORAIR:MIXER,PTHP 5 OA MIXER,PTHP 5 OA NODE,PTHP 5 MIXED AIR NODE,Air Nodes
 Component Set,128,ZONEHVAC:PACKAGEDTERMINALHEATPUMP,PTHP 6,OUTDOORAIR:MIXER,PTHP 6 OA MIXER,PTHP 6 OA NODE,PTHP 6 MIXED AIR NODE,Air Nodes
 Component Set,129,ZONEHVAC:PACKAGEDTERMINALHEATPUMP,PTHP 31,OUTDOORAIR:MIXER,PTHP 31 OA MIXER,PTHP 31 OA NODE,PTHP 31 MIXED AIR NODE,Air Nodes
 Component Set,130,ZONEHVAC:PACKAGEDTERMINALHEATPUMP,PTHP 25,OUTDOORAIR:MIXER,PTHP 25 OA MIXER,PTHP 25 OA NODE,PTHP 25 MIXED AIR NODE,Air Nodes
 Component Set,131,ZONEHVAC:PACKAGEDTERMINALHEATPUMP,PTHP 23,OUTDOORAIR:MIXER,PTHP 23 OA MIXER,PTHP 23 OA NODE,PTHP 23 MIXED AIR NODE,Air Nodes
 Component Set,132,ZONEHVAC:PACKAGEDTERMINALHEATPUMP,PTHP 21,OUTDOORAIR:MIXER,PTHP 21 OA MIXER,PTHP 21 OA NODE,PTHP 21 MIXED AIR NODE,Air Nodes
 Component Set,133,ZONEHVAC:PACKAGEDTERMINALHEATPUMP,PTHP 10,OUTDOORAIR:MIXER,PTHP 10 OA MIXER,PTHP 10 OA NODE,PTHP 10 MIXED AIR NODE,Air Nodes
 Component Set,134,ZONEHVAC:PACKAGEDTERMINALHEATPUMP,PTHP 1,OUTDOORAIR:MIXER,PTHP 1 OA MIXER,PTHP 1 OA NODE,PTHP 1 MIXED AIR NODE,Air Nodes
 Component Set,135,ZONEHVAC:PACKAGEDTERMINALHEATPUMP,PTHP 27,OUTDOORAIR:MIXER,PTHP 27 OA MIXER,PTHP 27 OA NODE,PTHP 27 MIXED AIR NODE,Air Nodes
 Component Set,136,ZONEHVAC:PACKAGEDTERMINALHEATPUMP,PTHP 26,OUTDOORAIR:MIXER,PTHP 26 OA MIXER,PTHP 26 OA NODE,PTHP 26 MIXED AIR NODE,Air Nodes
 Component Set,137,ZONEHVAC:PACKAGEDTERMINALHEATPUMP,PTHP 30,OUTDOORAIR:MIXER,PTHP 30 OA MIXER,PTHP 30 OA NODE,PTHP 30 MIXED AIR NODE,Air Nodes
 Component Set,138,ZONEHVAC:PACKAGEDTERMINALHEATPUMP,PTHP 32,OUTDOORAIR:MIXER,PTHP 32 OA MIXER,PTHP 32 OA NODE,PTHP 32 MIXED AIR NODE,Air Nodes
 Component Set,139,ZONEHVAC:PACKAGEDTERMINALHEATPUMP,PTHP 39,OUTDOORAIR:MIXER,PTHP 39 OA MIXER,PTHP 39 OA NODE,PTHP 39 MIXED AIR NODE,Air Nodes
 Component Set,140,ZONEHVAC:PACKAGEDTERMINALHEATPUMP,PTHP,FAN:CONSTANTVOLUME,PTHP CV FAN,PTHP HEATING COIL OUTLET NODE,PTHP FAN OUTLET NODE,Air Nodes
 Component Set,141,ZONEHVAC:PACKAGEDTERMINALHEATPUMP,PTHP 40,FAN:CONSTANTVOLUME,PTHP CV FAN 40,PTHP 40 HEATING COIL OUTLET NODE,PTHP 40 FAN OUTLET NODE,Air Nodes
 Component Set,142,ZONEHVAC:PACKAGEDTERMINALHEATPUMP,PTHP 41,FAN:CONSTANTVOLUME,PTHP CV FAN 41,PTHP 41 HEATING COIL OUTLET NODE,PTHP 41 FAN OUTLET NODE,Air Nodes
 Component Set,143,ZONEHVAC:PACKAGEDTERMINALHEATPUMP,PTHP 42,FAN:CONSTANTVOLUME,PTHP CV FAN 42,PTHP 42 HEATING COIL OUTLET NODE,PTHP 42 FAN OUTLET NODE,Air Nodes
 Component Set,144,ZONEHVAC:PACKAGEDTERMINALHEATPUMP,PTHP 38,FAN:CONSTANTVOLUME,PTHP CV FAN 38,PTHP 38 HEATING COIL OUTLET NODE,PTHP 38 FAN OUTLET NODE,Air Nodes
 Component Set,145,ZONEHVAC:PACKAGEDTERMINALHEATPUMP,PTHP 43,FAN:CONSTANTVOLUME,PTHP CV FAN 43,PTHP 43 HEATING COIL OUTLET NODE,PTHP 43 FAN OUTLET NODE,Air Nodes
 Component Set,146,ZONEHVAC:PACKAGEDTERMINALHEATPUMP,PTHP 34,FAN:CONSTANTVOLUME,PTHP CV FAN 34,PTHP 34 HEATING COIL OUTLET NODE,PTHP 34 FAN OUTLET NODE,Air Nodes
 Component Set,147,ZONEHVAC:PACKAGEDTERMINALHEATPUMP,PTHP 33,FAN:CONSTANTVOLUME,PTHP CV FAN 33,PTHP 33 HEATING COIL OUTLET NODE,PTHP 33 FAN OUTLET NODE,Air Nodes
 Component Set,148,ZONEHVAC:PACKAGEDTERMINALHEATPUMP,PTHP 37,FAN:CONSTANTVOLUME,PTHP CV FAN 37,PTHP 37 HEATING COIL OUTLET NODE,PTHP 37 FAN OUTLET NODE,Air Nodes
 Component Set,149,ZONEHVAC:PACKAGEDTERMINALHEATPUMP,PTHP 36,FAN:CONSTANTVOLUME,PTHP CV FAN 36,PTHP 36 HEATING COIL OUTLET NODE,PTHP 36 FAN OUTLET NODE,Air Nodes
 Component Set,150,ZONEHVAC:PACKAGEDTERMINALHEATPUMP,PTHP 35,FAN:CONSTANTVOLUME,PTHP CV FAN 35,PTHP 35 HEATING COIL OUTLET NODE,PTHP 35 FAN OUTLET NODE,Air Nodes
 Component Set,151,ZONEHVAC:PACKAGEDTERMINALHEATPUMP,PTHP 28,FAN:CONSTANTVOLUME,PTHP CV FAN 28,PTHP 28 HEATING COIL OUTLET NODE,PTHP 28 FAN OUTLET NODE,Air Nodes
 Component Set,152,ZONEHVAC:PACKAGEDTERMINALHEATPUMP,PTHP 3,FAN:CONSTANTVOLUME,PTHP CV FAN 3,PTHP 3 HEATING COIL OUTLET NODE,PTHP 3 FAN OUTLET NODE,Air Nodes
 Component Set,153,ZONEHVAC:PACKAGEDTERMINALHEATPUMP,PTHP 22,FAN:CONSTANTVOLUME,PTHP CV FAN 22,PTHP 22 HEATING COIL OUTLET NODE,PTHP 22 FAN OUTLET NODE,Air Nodes
 Component Set,154,ZONEHVAC:PACKAGEDTERMINALHEATPUMP,PTHP 7,FAN:CONSTANTVOLUME,PTHP CV FAN 7,PTHP 7 HEATING COIL OUTLET NODE,PTHP 7 FAN OUTLET NODE,Air Nodes
 Component Set,155,ZONEHVAC:PACKAGEDTERMINALHEATPUMP,PTHP 12,FAN:CONSTANTVOLUME,PTHP CV FAN 12,PTHP 12 HEATING COIL OUTLET NODE,PTHP 12 FAN OUTLET NODE,Air Nodes
 Component Set,156,ZONEHVAC:PACKAGEDTERMINALHEATPUMP,PTHP 2,FAN:CONSTANTVOLUME,PTHP CV FAN 2,PTHP 2 HEATING COIL OUTLET NODE,PTHP 2 FAN OUTLET NODE,Air Nodes
 Component Set,157,ZONEHVAC:PACKAGEDTERMINALHEATPUMP,PTHP 24,FAN:CONSTANTVOLUME,PTHP CV FAN 24,PTHP 24 HEATING COIL OUTLET NODE,PTHP 24 FAN OUTLET NODE,Air Nodes
 Component Set,158,ZONEHVAC:PACKAGEDTERMINALHEATPUMP,PTHP 16,FAN:CONSTANTVOLUME,PTHP CV FAN 16,PTHP 16 HEATING COIL OUTLET NODE,PTHP 16 FAN OUTLET NODE,Air Nodes
 Component Set,159,ZONEHVAC:PACKAGEDTERMINALHEATPUMP,PTHP 8,FAN:CONSTANTVOLUME,PTHP CV FAN 8,PTHP 8 HEATING COIL OUTLET NODE,PTHP 8 FAN OUTLET NODE,Air Nodes
 Component Set,160,ZONEHVAC:PACKAGEDTERMINALHEATPUMP,PTHP 19,FAN:CONSTANTVOLUME,PTHP CV FAN 19,PTHP 19 HEATING COIL OUTLET NODE,PTHP 19 FAN OUTLET NODE,Air Nodes
 Component Set,161,ZONEHVAC:PACKAGEDTERMINALHEATPUMP,PTHP 13,FAN:CONSTANTVOLUME,PTHP CV FAN 13,PTHP 13 HEATING COIL OUTLET NODE,PTHP 13 FAN OUTLET NODE,Air Nodes
 Component Set,162,ZONEHVAC:PACKAGEDTERMINALHEATPUMP,PTHP 29,FAN:CONSTANTVOLUME,PTHP CV FAN 29,PTHP 29 HEATING COIL OUTLET NODE,PTHP 29 FAN OUTLET NODE,Air Nodes
 Component Set,163,ZONEHVAC:PACKAGEDTERMINALHEATPUMP,PTHP 14,FAN:CONSTANTVOLUME,PTHP CV FAN 14,PTHP 14 HEATING COIL OUTLET NODE,PTHP 14 FAN OUTLET NODE,Air Nodes
 Component Set,164,ZONEHVAC:PACKAGEDTERMINALHEATPUMP,PTHP 17,FAN:CONSTANTVOLUME,PTHP CV FAN 17,PTHP 17 HEATING COIL OUTLET NODE,PTHP 17 FAN OUTLET NODE,Air Nodes
 Component Set,165,ZONEHVAC:PACKAGEDTERMINALHEATPUMP,PTHP 20,FAN:CONSTANTVOLUME,PTHP CV FAN 20,PTHP 20 HEATING COIL OUTLET NODE,PTHP 20 FAN OUTLET NODE,Air Nodes
 Component Set,166,ZONEHVAC:PACKAGEDTERMINALHEATPUMP,PTHP 4,FAN:CONSTANTVOLUME,PTHP CV FAN 4,PTHP 4 HEATING COIL OUTLET NODE,PTHP 4 FAN OUTLET NODE,Air Nodes
 Component Set,167,ZONEHVAC:PACKAGEDTERMINALHEATPUMP,PTHP 15,FAN:CONSTANTVOLUME,PTHP CV FAN 15,PTHP 15 HEATING COIL OUTLET NODE,PTHP 15 FAN OUTLET NODE,Air Nodes
 Component Set,168,ZONEHVAC:PACKAGEDTERMINALHEATPUMP,PTHP 9,FAN:CONSTANTVOLUME,PTHP CV FAN 9,PTHP 9 HEATING COIL OUTLET NODE,PTHP 9 FAN OUTLET NODE,Air Nodes
 Component Set,169,ZONEHVAC:PACKAGEDTERMINALHEATPUMP,PTHP 11,FAN:CONSTANTVOLUME,PTHP CV FAN 11,PTHP 11 HEATING COIL OUTLET NODE,PTHP 11 FAN OUTLET NODE,Air Nodes
 Component Set,170,ZONEHVAC:PACKAGEDTERMINALHEATPUMP,PTHP 18,FAN:CONSTANTVOLUME,PTHP CV FAN 18,PTHP 18 HEATING COIL OUTLET NODE,PTHP 18 FAN OUTLET NODE,Air Nodes
 Component Set,171,ZONEHVAC:PACKAGEDTERMINALHEATPUMP,PTHP 5,FAN:CONSTANTVOLUME,PTHP CV FAN 5,PTHP 5 HEATING COIL OUTLET NODE,PTHP 5 FAN OUTLET NODE,Air Nodes
 Component Set,172,ZONEHVAC:PACKAGEDTERMINALHEATPUMP,PTHP 6,FAN:CONSTANTVOLUME,PTHP CV FAN 6,PTHP 6 HEATING COIL OUTLET NODE,PTHP 6 FAN OUTLET NODE,Air Nodes
 Component Set,173,ZONEHVAC:PACKAGEDTERMINALHEATPUMP,PTHP 31,FAN:CONSTANTVOLUME,PTHP CV FAN 31,PTHP 31 HEATING COIL OUTLET NODE,PTHP 31 FAN OUTLET NODE,Air Nodes
 Component Set,174,ZONEHVAC:PACKAGEDTERMINALHEATPUMP,PTHP 25,FAN:CONSTANTVOLUME,PTHP CV FAN 25,PTHP 25 HEATING COIL OUTLET NODE,PTHP 25 FAN OUTLET NODE,Air Nodes
 Component Set,175,ZONEHVAC:PACKAGEDTERMINALHEATPUMP,PTHP 23,FAN:CONSTANTVOLUME,PTHP CV FAN 23,PTHP 23 HEATING COIL OUTLET NODE,PTHP 23 FAN OUTLET NODE,Air Nodes
 Component Set,176,ZONEHVAC:PACKAGEDTERMINALHEATPUMP,PTHP 21,FAN:CONSTANTVOLUME,PTHP CV FAN 21,PTHP 21 HEATING COIL OUTLET NODE,PTHP 21 FAN OUTLET NODE,Air Nodes
 Component Set,177,ZONEHVAC:PACKAGEDTERMINALHEATPUMP,PTHP 10,FAN:CONSTANTVOLUME,PTHP CV FAN 10,PTHP 10 HEATING COIL OUTLET NODE,PTHP 10 FAN OUTLET NODE,Air Nodes
 Component Set,178,ZONEHVAC:PACKAGEDTERMINALHEATPUMP,PTHP 1,FAN:CONSTANTVOLUME,PTHP CV FAN 1,PTHP 1 HEATING COIL OUTLET NODE,PTHP 1 FAN OUTLET NODE,Air Nodes
 Component Set,179,ZONEHVAC:PACKAGEDTERMINALHEATPUMP,PTHP 27,FAN:CONSTANTVOLUME,PTHP CV FAN 27,PTHP 27 HEATING COIL OUTLET NODE,PTHP 27 FAN OUTLET NODE,Air Nodes
 Component Set,180,ZONEHVAC:PACKAGEDTERMINALHEATPUMP,PTHP 26,FAN:CONSTANTVOLUME,PTHP CV FAN 26,PTHP 26 HEATING COIL OUTLET NODE,PTHP 26 FAN OUTLET NODE,Air Nodes
 Component Set,181,ZONEHVAC:PACKAGEDTERMINALHEATPUMP,PTHP 30,FAN:CONSTANTVOLUME,PTHP CV FAN 30,PTHP 30 HEATING COIL OUTLET NODE,PTHP 30 FAN OUTLET NODE,Air Nodes
 Component Set,182,ZONEHVAC:PACKAGEDTERMINALHEATPUMP,PTHP 32,FAN:CONSTANTVOLUME,PTHP CV FAN 32,PTHP 32 HEATING COIL OUTLET NODE,PTHP 32 FAN OUTLET NODE,Air Nodes
 Component Set,183,ZONEHVAC:PACKAGEDTERMINALHEATPUMP,PTHP 39,FAN:CONSTANTVOLUME,PTHP CV FAN 39,PTHP 39 HEATING COIL OUTLET NODE,PTHP 39 FAN OUTLET NODE,Air Nodes
 Component Set,184,ZONEHVAC:PACKAGEDTERMINALHEATPUMP,PTHP,COIL:HEATING:ELECTRIC,PTHP ELEC HTG BACKUP COIL,PTHP FAN OUTLET NODE,NODE 55,Air Nodes
 Component Set,185,ZONEHVAC:PACKAGEDTERMINALHEATPUMP,PTHP 40,COIL:HEATING:ELECTRIC,PTHP ELEC HTG BACKUP COIL 40,PTHP 40 FAN OUTLET NODE,NODE 135,Air Nodes
 Component Set,186,ZONEHVAC:PACKAGEDTERMINALHEATPUMP,PTHP 41,COIL:HEATING:ELECTRIC,PTHP ELEC HTG BACKUP COIL 41,PTHP 41 FAN OUTLET NODE,NODE 137,Air Nodes
 Component Set,187,ZONEHVAC:PACKAGEDTERMINALHEATPUMP,PTHP 42,COIL:HEATING:ELECTRIC,PTHP ELEC HTG BACKUP COIL 42,PTHP 42 FAN OUTLET NODE,NODE 139,Air Nodes
 Component Set,188,ZONEHVAC:PACKAGEDTERMINALHEATPUMP,PTHP 38,COIL:HEATING:ELECTRIC,PTHP ELEC HTG BACKUP COIL 38,PTHP 38 FAN OUTLET NODE,NODE 131,Air Nodes
 Component Set,189,ZONEHVAC:PACKAGEDTERMINALHEATPUMP,PTHP 43,COIL:HEATING:ELECTRIC,PTHP ELEC HTG BACKUP COIL 43,PTHP 43 FAN OUTLET NODE,NODE 141,Air Nodes
 Component Set,190,ZONEHVAC:PACKAGEDTERMINALHEATPUMP,PTHP 34,COIL:HEATING:ELECTRIC,PTHP ELEC HTG BACKUP COIL 34,PTHP 34 FAN OUTLET NODE,NODE 123,Air Nodes
 Component Set,191,ZONEHVAC:PACKAGEDTERMINALHEATPUMP,PTHP 33,COIL:HEATING:ELECTRIC,PTHP ELEC HTG BACKUP COIL 33,PTHP 33 FAN OUTLET NODE,NODE 121,Air Nodes
 Component Set,192,ZONEHVAC:PACKAGEDTERMINALHEATPUMP,PTHP 37,COIL:HEATING:ELECTRIC,PTHP ELEC HTG BACKUP COIL 37,PTHP 37 FAN OUTLET NODE,NODE 129,Air Nodes
 Component Set,193,ZONEHVAC:PACKAGEDTERMINALHEATPUMP,PTHP 36,COIL:HEATING:ELECTRIC,PTHP ELEC HTG BACKUP COIL 36,PTHP 36 FAN OUTLET NODE,NODE 127,Air Nodes
 Component Set,194,ZONEHVAC:PACKAGEDTERMINALHEATPUMP,PTHP 35,COIL:HEATING:ELECTRIC,PTHP ELEC HTG BACKUP COIL 35,PTHP 35 FAN OUTLET NODE,NODE 125,Air Nodes
 Component Set,195,ZONEHVAC:PACKAGEDTERMINALHEATPUMP,PTHP 28,COIL:HEATING:ELECTRIC,PTHP ELEC HTG BACKUP COIL 28,PTHP 28 FAN OUTLET NODE,NODE 111,Air Nodes
 Component Set,196,ZONEHVAC:PACKAGEDTERMINALHEATPUMP,PTHP 3,COIL:HEATING:ELECTRIC,PTHP ELEC HTG BACKUP COIL 3,PTHP 3 FAN OUTLET NODE,NODE 61,Air Nodes
 Component Set,197,ZONEHVAC:PACKAGEDTERMINALHEATPUMP,PTHP 22,COIL:HEATING:ELECTRIC,PTHP ELEC HTG BACKUP COIL 22,PTHP 22 FAN OUTLET NODE,NODE 99,Air Nodes
 Component Set,198,ZONEHVAC:PACKAGEDTERMINALHEATPUMP,PTHP 7,COIL:HEATING:ELECTRIC,PTHP ELEC HTG BACKUP COIL 7,PTHP 7 FAN OUTLET NODE,NODE 69,Air Nodes
 Component Set,199,ZONEHVAC:PACKAGEDTERMINALHEATPUMP,PTHP 12,COIL:HEATING:ELECTRIC,PTHP ELEC HTG BACKUP COIL 12,PTHP 12 FAN OUTLET NODE,NODE 79,Air Nodes
 Component Set,200,ZONEHVAC:PACKAGEDTERMINALHEATPUMP,PTHP 2,COIL:HEATING:ELECTRIC,PTHP ELEC HTG BACKUP COIL 2,PTHP 2 FAN OUTLET NODE,NODE 59,Air Nodes
 Component Set,201,ZONEHVAC:PACKAGEDTERMINALHEATPUMP,PTHP 24,COIL:HEATING:ELECTRIC,PTHP ELEC HTG BACKUP COIL 24,PTHP 24 FAN OUTLET NODE,NODE 103,Air Nodes
 Component Set,202,ZONEHVAC:PACKAGEDTERMINALHEATPUMP,PTHP 16,COIL:HEATING:ELECTRIC,PTHP ELEC HTG BACKUP COIL 16,PTHP 16 FAN OUTLET NODE,NODE 87,Air Nodes
 Component Set,203,ZONEHVAC:PACKAGEDTERMINALHEATPUMP,PTHP 8,COIL:HEATING:ELECTRIC,PTHP ELEC HTG BACKUP COIL 8,PTHP 8 FAN OUTLET NODE,NODE 71,Air Nodes
 Component Set,204,ZONEHVAC:PACKAGEDTERMINALHEATPUMP,PTHP 19,COIL:HEATING:ELECTRIC,PTHP ELEC HTG BACKUP COIL 19,PTHP 19 FAN OUTLET NODE,NODE 93,Air Nodes
 Component Set,205,ZONEHVAC:PACKAGEDTERMINALHEATPUMP,PTHP 13,COIL:HEATING:ELECTRIC,PTHP ELEC HTG BACKUP COIL 13,PTHP 13 FAN OUTLET NODE,NODE 81,Air Nodes
 Component Set,206,ZONEHVAC:PACKAGEDTERMINALHEATPUMP,PTHP 29,COIL:HEATING:ELECTRIC,PTHP ELEC HTG BACKUP COIL 29,PTHP 29 FAN OUTLET NODE,NODE 113,Air Nodes
 Component Set,207,ZONEHVAC:PACKAGEDTERMINALHEATPUMP,PTHP 14,COIL:HEATING:ELECTRIC,PTHP ELEC HTG BACKUP COIL 14,PTHP 14 FAN OUTLET NODE,NODE 83,Air Nodes
 Component Set,208,ZONEHVAC:PACKAGEDTERMINALHEATPUMP,PTHP 17,COIL:HEATING:ELECTRIC,PTHP ELEC HTG BACKUP COIL 17,PTHP 17 FAN OUTLET NODE,NODE 89,Air Nodes
 Component Set,209,ZONEHVAC:PACKAGEDTERMINALHEATPUMP,PTHP 20,COIL:HEATING:ELECTRIC,PTHP ELEC HTG BACKUP COIL 20,PTHP 20 FAN OUTLET NODE,NODE 95,Air Nodes
 Component Set,210,ZONEHVAC:PACKAGEDTERMINALHEATPUMP,PTHP 4,COIL:HEATING:ELECTRIC,PTHP ELEC HTG BACKUP COIL 4,PTHP 4 FAN OUTLET NODE,NODE 63,Air Nodes
 Component Set,211,ZONEHVAC:PACKAGEDTERMINALHEATPUMP,PTHP 15,COIL:HEATING:ELECTRIC,PTHP ELEC HTG BACKUP COIL 15,PTHP 15 FAN OUTLET NODE,NODE 85,Air Nodes
 Component Set,212,ZONEHVAC:PACKAGEDTERMINALHEATPUMP,PTHP 9,COIL:HEATING:ELECTRIC,PTHP ELEC HTG BACKUP COIL 9,PTHP 9 FAN OUTLET NODE,NODE 73,Air Nodes
 Component Set,213,ZONEHVAC:PACKAGEDTERMINALHEATPUMP,PTHP 11,COIL:HEATING:ELECTRIC,PTHP ELEC HTG BACKUP COIL 11,PTHP 11 FAN OUTLET NODE,NODE 77,Air Nodes
 Component Set,214,ZONEHVAC:PACKAGEDTERMINALHEATPUMP,PTHP 18,COIL:HEATING:ELECTRIC,PTHP ELEC HTG BACKUP COIL 18,PTHP 18 FAN OUTLET NODE,NODE 91,Air Nodes
 Component Set,215,ZONEHVAC:PACKAGEDTERMINALHEATPUMP,PTHP 5,COIL:HEATING:ELECTRIC,PTHP ELEC HTG BACKUP COIL 5,PTHP 5 FAN OUTLET NODE,NODE 65,Air Nodes
 Component Set,216,ZONEHVAC:PACKAGEDTERMINALHEATPUMP,PTHP 6,COIL:HEATING:ELECTRIC,PTHP ELEC HTG BACKUP COIL 6,PTHP 6 FAN OUTLET NODE,NODE 67,Air Nodes
 Component Set,217,ZONEHVAC:PACKAGEDTERMINALHEATPUMP,PTHP 31,COIL:HEATING:ELECTRIC,PTHP ELEC HTG BACKUP COIL 31,PTHP 31 FAN OUTLET NODE,NODE 117,Air Nodes
 Component Set,218,ZONEHVAC:PACKAGEDTERMINALHEATPUMP,PTHP 25,COIL:HEATING:ELECTRIC,PTHP ELEC HTG BACKUP COIL 25,PTHP 25 FAN OUTLET NODE,NODE 105,Air Nodes
 Component Set,219,ZONEHVAC:PACKAGEDTERMINALHEATPUMP,PTHP 23,COIL:HEATING:ELECTRIC,PTHP ELEC HTG BACKUP COIL 23,PTHP 23 FAN OUTLET NODE,NODE 101,Air Nodes
 Component Set,220,ZONEHVAC:PACKAGEDTERMINALHEATPUMP,PTHP 21,COIL:HEATING:ELECTRIC,PTHP ELEC HTG BACKUP COIL 21,PTHP 21 FAN OUTLET NODE,NODE 97,Air Nodes
 Component Set,221,ZONEHVAC:PACKAGEDTERMINALHEATPUMP,PTHP 10,COIL:HEATING:ELECTRIC,PTHP ELEC HTG BACKUP COIL 10,PTHP 10 FAN OUTLET NODE,NODE 75,Air Nodes
 Component Set,222,ZONEHVAC:PACKAGEDTERMINALHEATPUMP,PTHP 1,COIL:HEATING:ELECTRIC,PTHP ELEC HTG BACKUP COIL 1,PTHP 1 FAN OUTLET NODE,NODE 57,Air Nodes
 Component Set,223,ZONEHVAC:PACKAGEDTERMINALHEATPUMP,PTHP 27,COIL:HEATING:ELECTRIC,PTHP ELEC HTG BACKUP COIL 27,PTHP 27 FAN OUTLET NODE,NODE 109,Air Nodes
 Component Set,224,ZONEHVAC:PACKAGEDTERMINALHEATPUMP,PTHP 26,COIL:HEATING:ELECTRIC,PTHP ELEC HTG BACKUP COIL 26,PTHP 26 FAN OUTLET NODE,NODE 107,Air Nodes
 Component Set,225,ZONEHVAC:PACKAGEDTERMINALHEATPUMP,PTHP 30,COIL:HEATING:ELECTRIC,PTHP ELEC HTG BACKUP COIL 30,PTHP 30 FAN OUTLET NODE,NODE 115,Air Nodes
 Component Set,226,ZONEHVAC:PACKAGEDTERMINALHEATPUMP,PTHP 32,COIL:HEATING:ELECTRIC,PTHP ELEC HTG BACKUP COIL 32,PTHP 32 FAN OUTLET NODE,NODE 119,Air Nodes
 Component Set,227,ZONEHVAC:PACKAGEDTERMINALHEATPUMP,PTHP 39,COIL:HEATING:ELECTRIC,PTHP ELEC HTG BACKUP COIL 39,PTHP 39 FAN OUTLET NODE,NODE 133,Air Nodes
! ===============================================================
! <# Plant Loops>,<Number of Plant Loops>
 #Plant Loops,1
! <Plant Loop>,<Plant Loop Name>,<Loop Type>,<Inlet Node Name>,<Outlet Node Name>,<Branch List>,<Connector List>
! <Plant Loop Connector>,<Connector Type>,<Connector Name>,<Loop Name>,<Loop Type>,<Number of Inlets/Outlets>
! <Plant Loop Connector Branches>,<Connector Node Count>,<Connector Type>,<Connector Name>,<Inlet Branch>,<Outlet Branch>,<Loop Name>,<Loop Type>
! <Plant Loop Connector Nodes>,<Connector Node Count>,<Connector Type>,<Connector Name>,<Inlet Node>,<Outlet Node>,<Loop Name>,<Loop Type>
! <Plant Loop Supply Connection>,<Plant Loop Name>,<Supply Side Outlet Node Name>,<Demand Side Inlet Node Name>
! <Plant Loop Return Connection>,<Plant Loop Name>,<Demand Side Outlet Node Name>,<Supply Side Inlet Node Name>
 Plant Loop,SERVICE WATER LOOP,Demand,NODE 48,NODE 49,SERVICE WATER LOOP DEMAND BRANCHES,SERVICE WATER LOOP DEMAND CONNECTOR LIST
   Plant Loop Connector,Splitter,SERVICE WATER LOOP DEMAND SPLITTER,SERVICE WATER LOOP,Demand,2
     Plant Loop Connector Branches,1,Splitter,SERVICE WATER LOOP DEMAND SPLITTER,SERVICE WATER LOOP DEMAND INLET BRANCH,SERVICE WATER LOOP DEMAND BRANCH 1,SERVICE WATER LOOP,Demand
     Plant Loop Connector Nodes,   1,Splitter,SERVICE WATER LOOP DEMAND SPLITTER,SERVICE WATER LOOP DEMAND INLET PIPE NODE,NODE 50,SERVICE WATER LOOP,Demand
     Plant Loop Connector Branches,2,Splitter,SERVICE WATER LOOP DEMAND SPLITTER,SERVICE WATER LOOP DEMAND INLET BRANCH,SERVICE WATER LOOP DEMAND BYPASS BRANCH,SERVICE WATER LOOP,Demand
     Plant Loop Connector Nodes,   2,Splitter,SERVICE WATER LOOP DEMAND SPLITTER,SERVICE WATER LOOP DEMAND INLET PIPE NODE,SERVICE WATER LOOP DEMAND BYPASS PIPE INLET NODE,SERVICE WATER LOOP,Demand
   Plant Loop Connector,Mixer,SERVICE WATER LOOP DEMAND MIXER,SERVICE WATER LOOP,Demand,2
     Plant Loop Connector Branches,1,Mixer,SERVICE WATER LOOP DEMAND MIXER,SERVICE WATER LOOP DEMAND BRANCH 1,SERVICE WATER LOOP DEMAND OUTLET BRANCH,SERVICE WATER LOOP,Demand
     Plant Loop Connector Nodes,   1,Mixer,SERVICE WATER LOOP DEMAND MIXER,NODE 53,SERVICE WATER LOOP DEMAND OUTLET PIPE NODE,SERVICE WATER LOOP,Demand
     Plant Loop Connector Branches,2,Mixer,SERVICE WATER LOOP DEMAND MIXER,SERVICE WATER LOOP DEMAND BYPASS BRANCH,SERVICE WATER LOOP DEMAND OUTLET BRANCH,SERVICE WATER LOOP,Demand
     Plant Loop Connector Nodes,   2,Mixer,SERVICE WATER LOOP DEMAND MIXER,SERVICE WATER LOOP DEMAND BYPASS PIPE OUTLET NODE,SERVICE WATER LOOP DEMAND OUTLET PIPE NODE,SERVICE WATER LOOP,Demand
 Plant Loop,SERVICE WATER LOOP,Supply,NODE 45,NODE 46,SERVICE WATER LOOP SUPPLY BRANCHES,SERVICE WATER LOOP SUPPLY CONNECTOR LIST
   Plant Loop Connector,Splitter,SERVICE WATER LOOP SUPPLY SPLITTER,SERVICE WATER LOOP,Supply,1
     Plant Loop Connector Branches,1,Splitter,SERVICE WATER LOOP SUPPLY SPLITTER,SERVICE WATER LOOP SUPPLY INLET BRANCH,SERVICE WATER LOOP SUPPLY BRANCH 1,SERVICE WATER LOOP,Supply
     Plant Loop Connector Nodes,   1,Splitter,SERVICE WATER LOOP SUPPLY SPLITTER,NODE 51,NODE 47,SERVICE WATER LOOP,Supply
   Plant Loop Connector,Mixer,SERVICE WATER LOOP SUPPLY MIXER,SERVICE WATER LOOP,Supply,1
     Plant Loop Connector Branches,1,Mixer,SERVICE WATER LOOP SUPPLY MIXER,SERVICE WATER LOOP SUPPLY BRANCH 1,SERVICE WATER LOOP SUPPLY OUTLET BRANCH,SERVICE WATER LOOP,Supply
     Plant Loop Connector Nodes,   1,Mixer,SERVICE WATER LOOP SUPPLY MIXER,NODE 52,SERVICE WATER LOOP SUPPLY OUTLET PIPE NODE,SERVICE WATER LOOP,Supply
 Plant Loop Supply Connection,SERVICE WATER LOOP,NODE 46,NODE 48
 Plant Loop Return Connection,SERVICE WATER LOOP,NODE 49,NODE 45
! ===============================================================
! <# Condenser Loops>,<Number of Condenser Loops>
 #Condenser Loops,0
! <Condenser Loop>,<Condenser Loop Name>,<Loop Type>,<Inlet Node Name>,<Outlet Node Name>,<Branch List>,<Connector List>
! <Condenser Loop Connector>,<Connector Type>,<Connector Name>,<Loop Name>,<Loop Type>,<Number of Inlets/Outlets>
! <Condenser Loop Connector Branches>,<Connector Node Count>,<Connector Type>,<Connector Name>,<Inlet Branch>,<Outlet Branch>,<Loop Name>,<Loop Type>
! <Condenser Loop Connector Nodes>,<Connector Node Count>,<Connector Type>,<Connector Name>,<Inlet Node>,<Outlet Node>,<Loop Name>,<Loop Type>
! <Condenser Loop Supply Connection>,<Condenser Loop Name>,<Supply Side Outlet Node Name>,<Demand Side Inlet Node Name>
! <Condenser Loop Return Connection>,<Condenser Loop Name>,<Demand Side Outlet Node Name>,<Supply Side Inlet Node Name>
! ===============================================================
! <# Controlled Zones>,<Number of Controlled Zones>
 #Controlled Zones,44
! <Controlled Zone>,<Controlled Zone Name>,<Equip List Name>,<Control List Name>,<Zone Node Name>,<# Inlet Nodes>,<# Exhaust Nodes>,<# Return Nodes>
! <Controlled Zone Inlet>,<Inlet Node Count>,<Controlled Zone Name>,<Supply Air Inlet Node Name>,<SD Sys:Cooling/Heating [DD:Cooling] Inlet Node Name>,<DD Sys:Heating Inlet Node Name>
! <Controlled Zone Exhaust>,<Exhaust Node Count>,<Controlled Zone Name>,<Exhaust Air Node Name>
 Controlled Zone,THERMAL ZONE 1,THERMAL ZONE 1 EQUIPMENT LIST,,NODE 1,1,1,0
   Controlled Zone Inlet,1,THERMAL ZONE 1,NODE 55,Undefined,N/A
   Controlled Zone Exhaust,1,THERMAL ZONE 1,NODE 54
 Controlled Zone,THERMAL ZONE 10,THERMAL ZONE 10 EQUIPMENT LIST,,NODE 10,1,1,0
   Controlled Zone Inlet,1,THERMAL ZONE 10,NODE 135,Undefined,N/A
   Controlled Zone Exhaust,1,THERMAL ZONE 10,NODE 134
 Controlled Zone,THERMAL ZONE 11,THERMAL ZONE 11 EQUIPMENT LIST,,NODE 11,1,1,0
   Controlled Zone Inlet,1,THERMAL ZONE 11,NODE 137,Undefined,N/A
   Controlled Zone Exhaust,1,THERMAL ZONE 11,NODE 136
 Controlled Zone,THERMAL ZONE 12,THERMAL ZONE 12 EQUIPMENT LIST,,NODE 12,1,1,0
   Controlled Zone Inlet,1,THERMAL ZONE 12,NODE 139,Undefined,N/A
   Controlled Zone Exhaust,1,THERMAL ZONE 12,NODE 138
 Controlled Zone,THERMAL ZONE 13,THERMAL ZONE 13 EQUIPMENT LIST,,NODE 13,1,1,0
   Controlled Zone Inlet,1,THERMAL ZONE 13,NODE 131,Undefined,N/A
   Controlled Zone Exhaust,1,THERMAL ZONE 13,NODE 130
 Controlled Zone,THERMAL ZONE 14,THERMAL ZONE 14 EQUIPMENT LIST,,NODE 14,1,1,0
   Controlled Zone Inlet,1,THERMAL ZONE 14,NODE 141,Undefined,N/A
   Controlled Zone Exhaust,1,THERMAL ZONE 14,NODE 140
 Controlled Zone,THERMAL ZONE 15,THERMAL ZONE 15 EQUIPMENT LIST,,NODE 15,1,1,0
   Controlled Zone Inlet,1,THERMAL ZONE 15,NODE 123,Undefined,N/A
   Controlled Zone Exhaust,1,THERMAL ZONE 15,NODE 122
 Controlled Zone,THERMAL ZONE 16,THERMAL ZONE 16 EQUIPMENT LIST,,NODE 16,1,1,0
   Controlled Zone Inlet,1,THERMAL ZONE 16,NODE 121,Undefined,N/A
   Controlled Zone Exhaust,1,THERMAL ZONE 16,NODE 120
 Controlled Zone,THERMAL ZONE 17,THERMAL ZONE 17 EQUIPMENT LIST,,NODE 17,1,1,0
   Controlled Zone Inlet,1,THERMAL ZONE 17,NODE 129,Undefined,N/A
   Controlled Zone Exhaust,1,THERMAL ZONE 17,NODE 128
 Controlled Zone,THERMAL ZONE 18,THERMAL ZONE 18 EQUIPMENT LIST,,NODE 18,1,1,0
   Controlled Zone Inlet,1,THERMAL ZONE 18,NODE 127,Undefined,N/A
   Controlled Zone Exhaust,1,THERMAL ZONE 18,NODE 126
 Controlled Zone,THERMAL ZONE 19,THERMAL ZONE 19 EQUIPMENT LIST,,NODE 19,1,1,0
   Controlled Zone Inlet,1,THERMAL ZONE 19,NODE 125,Undefined,N/A
   Controlled Zone Exhaust,1,THERMAL ZONE 19,NODE 124
 Controlled Zone,THERMAL ZONE 2,THERMAL ZONE 2 EQUIPMENT LIST,,NODE 2,1,1,0
   Controlled Zone Inlet,1,THERMAL ZONE 2,NODE 111,Undefined,N/A
   Controlled Zone Exhaust,1,THERMAL ZONE 2,NODE 110
 Controlled Zone,THERMAL ZONE 20,THERMAL ZONE 20 EQUIPMENT LIST,,NODE 20,1,1,0
   Controlled Zone Inlet,1,THERMAL ZONE 20,NODE 61,Undefined,N/A
   Controlled Zone Exhaust,1,THERMAL ZONE 20,NODE 60
 Controlled Zone,THERMAL ZONE 21,THERMAL ZONE 21 EQUIPMENT LIST,,NODE 21,1,1,0
   Controlled Zone Inlet,1,THERMAL ZONE 21,NODE 99,Undefined,N/A
   Controlled Zone Exhaust,1,THERMAL ZONE 21,NODE 98
 Controlled Zone,THERMAL ZONE 22,THERMAL ZONE 22 EQUIPMENT LIST,,NODE 22,1,1,0
   Controlled Zone Inlet,1,THERMAL ZONE 22,NODE 69,Undefined,N/A
   Controlled Zone Exhaust,1,THERMAL ZONE 22,NODE 68
 Controlled Zone,THERMAL ZONE 23,THERMAL ZONE 23 EQUIPMENT LIST,,NODE 23,1,1,0
   Controlled Zone Inlet,1,THERMAL ZONE 23,NODE 79,Undefined,N/A
   Controlled Zone Exhaust,1,THERMAL ZONE 23,NODE 78
 Controlled Zone,THERMAL ZONE 24,THERMAL ZONE 24 EQUIPMENT LIST,,NODE 24,1,1,0
   Controlled Zone Inlet,1,THERMAL ZONE 24,NODE 59,Undefined,N/A
   Controlled Zone Exhaust,1,THERMAL ZONE 24,NODE 58
 Controlled Zone,THERMAL ZONE 25,THERMAL ZONE 25 EQUIPMENT LIST,,NODE 25,1,1,0
   Controlled Zone Inlet,1,THERMAL ZONE 25,NODE 103,Undefined,N/A
   Controlled Zone Exhaust,1,THERMAL ZONE 25,NODE 102
 Controlled Zone,THERMAL ZONE 26,THERMAL ZONE 26 EQUIPMENT LIST,,NODE 26,1,1,0
   Controlled Zone Inlet,1,THERMAL ZONE 26,NODE 87,Undefined,N/A
   Controlled Zone Exhaust,1,THERMAL ZONE 26,NODE 86
 Controlled Zone,THERMAL ZONE 27,THERMAL ZONE 27 EQUIPMENT LIST,,NODE 27,1,1,0
   Controlled Zone Inlet,1,THERMAL ZONE 27,NODE 71,Undefined,N/A
   Controlled Zone Exhaust,1,THERMAL ZONE 27,NODE 70
 Controlled Zone,THERMAL ZONE 28,THERMAL ZONE 28 EQUIPMENT LIST,,NODE 28,1,1,0
   Controlled Zone Inlet,1,THERMAL ZONE 28,NODE 93,Undefined,N/A
   Controlled Zone Exhaust,1,THERMAL ZONE 28,NODE 92
 Controlled Zone,THERMAL ZONE 29,THERMAL ZONE 29 EQUIPMENT LIST,,NODE 29,1,1,0
   Controlled Zone Inlet,1,THERMAL ZONE 29,NODE 81,Undefined,N/A
   Controlled Zone Exhaust,1,THERMAL ZONE 29,NODE 80
 Controlled Zone,THERMAL ZONE 3,THERMAL ZONE 3 EQUIPMENT LIST,,NODE 3,1,1,0
   Controlled Zone Inlet,1,THERMAL ZONE 3,NODE 113,Undefined,N/A
   Controlled Zone Exhaust,1,THERMAL ZONE 3,NODE 112
 Controlled Zone,THERMAL ZONE 30,THERMAL ZONE 30 EQUIPMENT LIST,,NODE 30,1,1,0
   Controlled Zone Inlet,1,THERMAL ZONE 30,NODE 83,Undefined,N/A
   Controlled Zone Exhaust,1,THERMAL ZONE 30,NODE 82
 Controlled Zone,THERMAL ZONE 31,THERMAL ZONE 31 EQUIPMENT LIST,,NODE 31,1,1,0
   Controlled Zone Inlet,1,THERMAL ZONE 31,NODE 89,Undefined,N/A
   Controlled Zone Exhaust,1,THERMAL ZONE 31,NODE 88
 Controlled Zone,THERMAL ZONE 32,THERMAL ZONE 32 EQUIPMENT LIST,,NODE 32,1,1,0
   Controlled Zone Inlet,1,THERMAL ZONE 32,NODE 95,Undefined,N/A
   Controlled Zone Exhaust,1,THERMAL ZONE 32,NODE 94
 Controlled Zone,THERMAL ZONE 33,THERMAL ZONE 33 EQUIPMENT LIST,,NODE 33,1,1,0
   Controlled Zone Inlet,1,THERMAL ZONE 33,NODE 63,Undefined,N/A
   Controlled Zone Exhaust,1,THERMAL ZONE 33,NODE 62
 Controlled Zone,THERMAL ZONE 34,THERMAL ZONE 34 EQUIPMENT LIST,,NODE 34,1,1,0
   Controlled Zone Inlet,1,THERMAL ZONE 34,NODE 85,Undefined,N/A
   Controlled Zone Exhaust,1,THERMAL ZONE 34,NODE 84
 Controlled Zone,THERMAL ZONE 35,THERMAL ZONE 35 EQUIPMENT LIST,,NODE 35,1,1,0
   Controlled Zone Inlet,1,THERMAL ZONE 35,NODE 73,Undefined,N/A
   Controlled Zone Exhaust,1,THERMAL ZONE 35,NODE 72
 Controlled Zone,THERMAL ZONE 36,THERMAL ZONE 36 EQUIPMENT LIST,,NODE 36,1,1,0
   Controlled Zone Inlet,1,THERMAL ZONE 36,NODE 77,Undefined,N/A
   Controlled Zone Exhaust,1,THERMAL ZONE 36,NODE 76
 Controlled Zone,THERMAL ZONE 37,THERMAL ZONE 37 EQUIPMENT LIST,,NODE 37,1,1,0
   Controlled Zone Inlet,1,THERMAL ZONE 37,NODE 91,Undefined,N/A
   Controlled Zone Exhaust,1,THERMAL ZONE 37,NODE 90
 Controlled Zone,THERMAL ZONE 38,THERMAL ZONE 38 EQUIPMENT LIST,,NODE 38,1,1,0
   Controlled Zone Inlet,1,THERMAL ZONE 38,NODE 65,Undefined,N/A
   Controlled Zone Exhaust,1,THERMAL ZONE 38,NODE 64
 Controlled Zone,THERMAL ZONE 39,THERMAL ZONE 39 EQUIPMENT LIST,,NODE 39,1,1,0
   Controlled Zone Inlet,1,THERMAL ZONE 39,NODE 67,Undefined,N/A
   Controlled Zone Exhaust,1,THERMAL ZONE 39,NODE 66
 Controlled Zone,THERMAL ZONE 4,THERMAL ZONE 4 EQUIPMENT LIST,,NODE 4,1,1,0
   Controlled Zone Inlet,1,THERMAL ZONE 4,NODE 117,Undefined,N/A
   Controlled Zone Exhaust,1,THERMAL ZONE 4,NODE 116
 Controlled Zone,THERMAL ZONE 40,THERMAL ZONE 40 EQUIPMENT LIST,,NODE 40,1,1,0
   Controlled Zone Inlet,1,THERMAL ZONE 40,NODE 105,Undefined,N/A
   Controlled Zone Exhaust,1,THERMAL ZONE 40,NODE 104
 Controlled Zone,THERMAL ZONE 41,THERMAL ZONE 41 EQUIPMENT LIST,,NODE 41,1,1,0
   Controlled Zone Inlet,1,THERMAL ZONE 41,NODE 101,Undefined,N/A
   Controlled Zone Exhaust,1,THERMAL ZONE 41,NODE 100
 Controlled Zone,THERMAL ZONE 42,THERMAL ZONE 42 EQUIPMENT LIST,,NODE 42,1,1,0
   Controlled Zone Inlet,1,THERMAL ZONE 42,NODE 97,Undefined,N/A
   Controlled Zone Exhaust,1,THERMAL ZONE 42,NODE 96
 Controlled Zone,THERMAL ZONE 43,THERMAL ZONE 43 EQUIPMENT LIST,,NODE 43,1,1,0
   Controlled Zone Inlet,1,THERMAL ZONE 43,NODE 75,Undefined,N/A
   Controlled Zone Exhaust,1,THERMAL ZONE 43,NODE 74
 Controlled Zone,THERMAL ZONE 44,THERMAL ZONE 44 EQUIPMENT LIST,,NODE 44,1,1,0
   Controlled Zone Inlet,1,THERMAL ZONE 44,NODE 57,Undefined,N/A
   Controlled Zone Exhaust,1,THERMAL ZONE 44,NODE 56
 Controlled Zone,THERMAL ZONE 5,THERMAL ZONE 5 EQUIPMENT LIST,,NODE 5,1,1,0
   Controlled Zone Inlet,1,THERMAL ZONE 5,NODE 109,Undefined,N/A
   Controlled Zone Exhaust,1,THERMAL ZONE 5,NODE 108
 Controlled Zone,THERMAL ZONE 6,THERMAL ZONE 6 EQUIPMENT LIST,,NODE 6,1,1,0
   Controlled Zone Inlet,1,THERMAL ZONE 6,NODE 107,Undefined,N/A
   Controlled Zone Exhaust,1,THERMAL ZONE 6,NODE 106
 Controlled Zone,THERMAL ZONE 7,THERMAL ZONE 7 EQUIPMENT LIST,,NODE 7,1,1,0
   Controlled Zone Inlet,1,THERMAL ZONE 7,NODE 115,Undefined,N/A
   Controlled Zone Exhaust,1,THERMAL ZONE 7,NODE 114
 Controlled Zone,THERMAL ZONE 8,THERMAL ZONE 8 EQUIPMENT LIST,,NODE 8,1,1,0
   Controlled Zone Inlet,1,THERMAL ZONE 8,NODE 119,Undefined,N/A
   Controlled Zone Exhaust,1,THERMAL ZONE 8,NODE 118
 Controlled Zone,THERMAL ZONE 9,THERMAL ZONE 9 EQUIPMENT LIST,,NODE 9,1,1,0
   Controlled Zone Inlet,1,THERMAL ZONE 9,NODE 133,Undefined,N/A
   Controlled Zone Exhaust,1,THERMAL ZONE 9,NODE 132
! ===============================================================
! <#Zone Equipment Lists>,<Number of Zone Equipment Lists>
 #Zone Equipment Lists,44
! <Zone Equipment List>,<Zone Equipment List Count>,<Zone Equipment List Name>,<Zone Name>,<Number of Components>
! <Zone Equipment Component>,<Component Count>,<Component Type>,<Component Name>,<Zone Name>,<Heating Priority>,<Cooling Priority>
 Zone Equipment List,1,THERMAL ZONE 1 EQUIPMENT LIST,THERMAL ZONE 1,2
   Zone Equipment Component,1,ZONEHVAC:BASEBOARD:CONVECTIVE:ELECTRIC,ELEC BASEBOARD,THERMAL ZONE 1,1,1
   Zone Equipment Component,2,ZONEHVAC:PACKAGEDTERMINALHEATPUMP,PTHP,THERMAL ZONE 1,2,2
 Zone Equipment List,2,THERMAL ZONE 10 EQUIPMENT LIST,THERMAL ZONE 10,2
   Zone Equipment Component,1,ZONEHVAC:BASEBOARD:CONVECTIVE:ELECTRIC,ELEC BASEBOARD 40,THERMAL ZONE 10,1,1
   Zone Equipment Component,2,ZONEHVAC:PACKAGEDTERMINALHEATPUMP,PTHP 40,THERMAL ZONE 10,2,2
 Zone Equipment List,3,THERMAL ZONE 11 EQUIPMENT LIST,THERMAL ZONE 11,2
   Zone Equipment Component,1,ZONEHVAC:BASEBOARD:CONVECTIVE:ELECTRIC,ELEC BASEBOARD 41,THERMAL ZONE 11,1,1
   Zone Equipment Component,2,ZONEHVAC:PACKAGEDTERMINALHEATPUMP,PTHP 41,THERMAL ZONE 11,2,2
 Zone Equipment List,4,THERMAL ZONE 12 EQUIPMENT LIST,THERMAL ZONE 12,2
   Zone Equipment Component,1,ZONEHVAC:BASEBOARD:CONVECTIVE:ELECTRIC,ELEC BASEBOARD 42,THERMAL ZONE 12,1,1
   Zone Equipment Component,2,ZONEHVAC:PACKAGEDTERMINALHEATPUMP,PTHP 42,THERMAL ZONE 12,2,2
 Zone Equipment List,5,THERMAL ZONE 13 EQUIPMENT LIST,THERMAL ZONE 13,2
   Zone Equipment Component,1,ZONEHVAC:BASEBOARD:CONVECTIVE:ELECTRIC,ELEC BASEBOARD 38,THERMAL ZONE 13,1,1
   Zone Equipment Component,2,ZONEHVAC:PACKAGEDTERMINALHEATPUMP,PTHP 38,THERMAL ZONE 13,2,2
 Zone Equipment List,6,THERMAL ZONE 14 EQUIPMENT LIST,THERMAL ZONE 14,2
   Zone Equipment Component,1,ZONEHVAC:BASEBOARD:CONVECTIVE:ELECTRIC,ELEC BASEBOARD 43,THERMAL ZONE 14,1,1
   Zone Equipment Component,2,ZONEHVAC:PACKAGEDTERMINALHEATPUMP,PTHP 43,THERMAL ZONE 14,2,2
 Zone Equipment List,7,THERMAL ZONE 15 EQUIPMENT LIST,THERMAL ZONE 15,2
   Zone Equipment Component,1,ZONEHVAC:BASEBOARD:CONVECTIVE:ELECTRIC,ELEC BASEBOARD 34,THERMAL ZONE 15,1,1
   Zone Equipment Component,2,ZONEHVAC:PACKAGEDTERMINALHEATPUMP,PTHP 34,THERMAL ZONE 15,2,2
 Zone Equipment List,8,THERMAL ZONE 16 EQUIPMENT LIST,THERMAL ZONE 16,2
   Zone Equipment Component,1,ZONEHVAC:BASEBOARD:CONVECTIVE:ELECTRIC,ELEC BASEBOARD 33,THERMAL ZONE 16,1,1
   Zone Equipment Component,2,ZONEHVAC:PACKAGEDTERMINALHEATPUMP,PTHP 33,THERMAL ZONE 16,2,2
 Zone Equipment List,9,THERMAL ZONE 17 EQUIPMENT LIST,THERMAL ZONE 17,2
   Zone Equipment Component,1,ZONEHVAC:BASEBOARD:CONVECTIVE:ELECTRIC,ELEC BASEBOARD 37,THERMAL ZONE 17,1,1
   Zone Equipment Component,2,ZONEHVAC:PACKAGEDTERMINALHEATPUMP,PTHP 37,THERMAL ZONE 17,2,2
 Zone Equipment List,10,THERMAL ZONE 18 EQUIPMENT LIST,THERMAL ZONE 18,2
   Zone Equipment Component,1,ZONEHVAC:BASEBOARD:CONVECTIVE:ELECTRIC,ELEC BASEBOARD 36,THERMAL ZONE 18,1,1
   Zone Equipment Component,2,ZONEHVAC:PACKAGEDTERMINALHEATPUMP,PTHP 36,THERMAL ZONE 18,2,2
 Zone Equipment List,11,THERMAL ZONE 19 EQUIPMENT LIST,THERMAL ZONE 19,2
   Zone Equipment Component,1,ZONEHVAC:BASEBOARD:CONVECTIVE:ELECTRIC,ELEC BASEBOARD 35,THERMAL ZONE 19,1,1
   Zone Equipment Component,2,ZONEHVAC:PACKAGEDTERMINALHEATPUMP,PTHP 35,THERMAL ZONE 19,2,2
 Zone Equipment List,12,THERMAL ZONE 2 EQUIPMENT LIST,THERMAL ZONE 2,2
   Zone Equipment Component,1,ZONEHVAC:BASEBOARD:CONVECTIVE:ELECTRIC,ELEC BASEBOARD 28,THERMAL ZONE 2,1,1
   Zone Equipment Component,2,ZONEHVAC:PACKAGEDTERMINALHEATPUMP,PTHP 28,THERMAL ZONE 2,2,2
 Zone Equipment List,13,THERMAL ZONE 20 EQUIPMENT LIST,THERMAL ZONE 20,2
   Zone Equipment Component,1,ZONEHVAC:BASEBOARD:CONVECTIVE:ELECTRIC,ELEC BASEBOARD 3,THERMAL ZONE 20,1,1
   Zone Equipment Component,2,ZONEHVAC:PACKAGEDTERMINALHEATPUMP,PTHP 3,THERMAL ZONE 20,2,2
 Zone Equipment List,14,THERMAL ZONE 21 EQUIPMENT LIST,THERMAL ZONE 21,2
   Zone Equipment Component,1,ZONEHVAC:BASEBOARD:CONVECTIVE:ELECTRIC,ELEC BASEBOARD 22,THERMAL ZONE 21,1,1
   Zone Equipment Component,2,ZONEHVAC:PACKAGEDTERMINALHEATPUMP,PTHP 22,THERMAL ZONE 21,2,2
 Zone Equipment List,15,THERMAL ZONE 22 EQUIPMENT LIST,THERMAL ZONE 22,2
   Zone Equipment Component,1,ZONEHVAC:BASEBOARD:CONVECTIVE:ELECTRIC,ELEC BASEBOARD 7,THERMAL ZONE 22,1,1
   Zone Equipment Component,2,ZONEHVAC:PACKAGEDTERMINALHEATPUMP,PTHP 7,THERMAL ZONE 22,2,2
 Zone Equipment List,16,THERMAL ZONE 23 EQUIPMENT LIST,THERMAL ZONE 23,2
   Zone Equipment Component,1,ZONEHVAC:BASEBOARD:CONVECTIVE:ELECTRIC,ELEC BASEBOARD 12,THERMAL ZONE 23,1,1
[...]
 Non-Parent Node Connection,NODE 96,ZONEHVAC:EQUIPMENTCONNECTIONS,THERMAL ZONE 42,ZoneExhaust,1
 Non-Parent Node Connection,NODE 43,ZONEHVAC:EQUIPMENTCONNECTIONS,THERMAL ZONE 43,ZoneNode,1
 Non-Parent Node Connection,NODE 75,ZONEHVAC:EQUIPMENTCONNECTIONS,THERMAL ZONE 43,ZoneInlet,1
 Non-Parent Node Connection,NODE 74,ZONEHVAC:EQUIPMENTCONNECTIONS,THERMAL ZONE 43,ZoneExhaust,1
 Non-Parent Node Connection,NODE 44,ZONEHVAC:EQUIPMENTCONNECTIONS,THERMAL ZONE 44,ZoneNode,1
 Non-Parent Node Connection,NODE 57,ZONEHVAC:EQUIPMENTCONNECTIONS,THERMAL ZONE 44,ZoneInlet,1
 Non-Parent Node Connection,NODE 56,ZONEHVAC:EQUIPMENTCONNECTIONS,THERMAL ZONE 44,ZoneExhaust,1
 Non-Parent Node Connection,NODE 5,ZONEHVAC:EQUIPMENTCONNECTIONS,THERMAL ZONE 5,ZoneNode,1
 Non-Parent Node Connection,NODE 109,ZONEHVAC:EQUIPMENTCONNECTIONS,THERMAL ZONE 5,ZoneInlet,1
 Non-Parent Node Connection,NODE 108,ZONEHVAC:EQUIPMENTCONNECTIONS,THERMAL ZONE 5,ZoneExhaust,1
 Non-Parent Node Connection,NODE 6,ZONEHVAC:EQUIPMENTCONNECTIONS,THERMAL ZONE 6,ZoneNode,1
 Non-Parent Node Connection,NODE 107,ZONEHVAC:EQUIPMENTCONNECTIONS,THERMAL ZONE 6,ZoneInlet,1
 Non-Parent Node Connection,NODE 106,ZONEHVAC:EQUIPMENTCONNECTIONS,THERMAL ZONE 6,ZoneExhaust,1
 Non-Parent Node Connection,NODE 7,ZONEHVAC:EQUIPMENTCONNECTIONS,THERMAL ZONE 7,ZoneNode,1
 Non-Parent Node Connection,NODE 115,ZONEHVAC:EQUIPMENTCONNECTIONS,THERMAL ZONE 7,ZoneInlet,1
 Non-Parent Node Connection,NODE 114,ZONEHVAC:EQUIPMENTCONNECTIONS,THERMAL ZONE 7,ZoneExhaust,1
 Non-Parent Node Connection,NODE 8,ZONEHVAC:EQUIPMENTCONNECTIONS,THERMAL ZONE 8,ZoneNode,1
 Non-Parent Node Connection,NODE 119,ZONEHVAC:EQUIPMENTCONNECTIONS,THERMAL ZONE 8,ZoneInlet,1
 Non-Parent Node Connection,NODE 118,ZONEHVAC:EQUIPMENTCONNECTIONS,THERMAL ZONE 8,ZoneExhaust,1
 Non-Parent Node Connection,NODE 9,ZONEHVAC:EQUIPMENTCONNECTIONS,THERMAL ZONE 9,ZoneNode,1
 Non-Parent Node Connection,NODE 133,ZONEHVAC:EQUIPMENTCONNECTIONS,THERMAL ZONE 9,ZoneInlet,1
 Non-Parent Node Connection,NODE 132,ZONEHVAC:EQUIPMENTCONNECTIONS,THERMAL ZONE 9,ZoneExhaust,1
 Non-Parent Node Connection,PTHP HEATING COIL OUTLET NODE,FAN:CONSTANTVOLUME,PTHP CV FAN,Inlet,1
 Non-Parent Node Connection,PTHP FAN OUTLET NODE,FAN:CONSTANTVOLUME,PTHP CV FAN,Outlet,1
 Non-Parent Node Connection,PTHP 40 HEATING COIL OUTLET NODE,FAN:CONSTANTVOLUME,PTHP CV FAN 40,Inlet,1
 Non-Parent Node Connection,PTHP 40 FAN OUTLET NODE,FAN:CONSTANTVOLUME,PTHP CV FAN 40,Outlet,1
 Non-Parent Node Connection,PTHP 41 HEATING COIL OUTLET NODE,FAN:CONSTANTVOLUME,PTHP CV FAN 41,Inlet,1
 Non-Parent Node Connection,PTHP 41 FAN OUTLET NODE,FAN:CONSTANTVOLUME,PTHP CV FAN 41,Outlet,1
 Non-Parent Node Connection,PTHP 42 HEATING COIL OUTLET NODE,FAN:CONSTANTVOLUME,PTHP CV FAN 42,Inlet,1
 Non-Parent Node Connection,PTHP 42 FAN OUTLET NODE,FAN:CONSTANTVOLUME,PTHP CV FAN 42,Outlet,1
 Non-Parent Node Connection,PTHP 38 HEATING COIL OUTLET NODE,FAN:CONSTANTVOLUME,PTHP CV FAN 38,Inlet,1
 Non-Parent Node Connection,PTHP 38 FAN OUTLET NODE,FAN:CONSTANTVOLUME,PTHP CV FAN 38,Outlet,1
 Non-Parent Node Connection,PTHP 43 HEATING COIL OUTLET NODE,FAN:CONSTANTVOLUME,PTHP CV FAN 43,Inlet,1
 Non-Parent Node Connection,PTHP 43 FAN OUTLET NODE,FAN:CONSTANTVOLUME,PTHP CV FAN 43,Outlet,1
 Non-Parent Node Connection,PTHP 34 HEATING COIL OUTLET NODE,FAN:CONSTANTVOLUME,PTHP CV FAN 34,Inlet,1
 Non-Parent Node Connection,PTHP 34 FAN OUTLET NODE,FAN:CONSTANTVOLUME,PTHP CV FAN 34,Outlet,1
 Non-Parent Node Connection,PTHP 33 HEATING COIL OUTLET NODE,FAN:CONSTANTVOLUME,PTHP CV FAN 33,Inlet,1
 Non-Parent Node Connection,PTHP 33 FAN OUTLET NODE,FAN:CONSTANTVOLUME,PTHP CV FAN 33,Outlet,1
 Non-Parent Node Connection,PTHP 37 HEATING COIL OUTLET NODE,FAN:CONSTANTVOLUME,PTHP CV FAN 37,Inlet,1
 Non-Parent Node Connection,PTHP 37 FAN OUTLET NODE,FAN:CONSTANTVOLUME,PTHP CV FAN 37,Outlet,1
 Non-Parent Node Connection,PTHP 36 HEATING COIL OUTLET NODE,FAN:CONSTANTVOLUME,PTHP CV FAN 36,Inlet,1
 Non-Parent Node Connection,PTHP 36 FAN OUTLET NODE,FAN:CONSTANTVOLUME,PTHP CV FAN 36,Outlet,1
 Non-Parent Node Connection,PTHP 35 HEATING COIL OUTLET NODE,FAN:CONSTANTVOLUME,PTHP CV FAN 35,Inlet,1
 Non-Parent Node Connection,PTHP 35 FAN OUTLET NODE,FAN:CONSTANTVOLUME,PTHP CV FAN 35,Outlet,1
 Non-Parent Node Connection,PTHP 28 HEATING COIL OUTLET NODE,FAN:CONSTANTVOLUME,PTHP CV FAN 28,Inlet,1
 Non-Parent Node Connection,PTHP 28 FAN OUTLET NODE,FAN:CONSTANTVOLUME,PTHP CV FAN 28,Outlet,1
 Non-Parent Node Connection,PTHP 3 HEATING COIL OUTLET NODE,FAN:CONSTANTVOLUME,PTHP CV FAN 3,Inlet,1
 Non-Parent Node Connection,PTHP 3 FAN OUTLET NODE,FAN:CONSTANTVOLUME,PTHP CV FAN 3,Outlet,1
 Non-Parent Node Connection,PTHP 22 HEATING COIL OUTLET NODE,FAN:CONSTANTVOLUME,PTHP CV FAN 22,Inlet,1
 Non-Parent Node Connection,PTHP 22 FAN OUTLET NODE,FAN:CONSTANTVOLUME,PTHP CV FAN 22,Outlet,1
 Non-Parent Node Connection,PTHP 7 HEATING COIL OUTLET NODE,FAN:CONSTANTVOLUME,PTHP CV FAN 7,Inlet,1
 Non-Parent Node Connection,PTHP 7 FAN OUTLET NODE,FAN:CONSTANTVOLUME,PTHP CV FAN 7,Outlet,1
 Non-Parent Node Connection,PTHP 12 HEATING COIL OUTLET NODE,FAN:CONSTANTVOLUME,PTHP CV FAN 12,Inlet,1
 Non-Parent Node Connection,PTHP 12 FAN OUTLET NODE,FAN:CONSTANTVOLUME,PTHP CV FAN 12,Outlet,1
 Non-Parent Node Connection,PTHP 2 HEATING COIL OUTLET NODE,FAN:CONSTANTVOLUME,PTHP CV FAN 2,Inlet,1
 Non-Parent Node Connection,PTHP 2 FAN OUTLET NODE,FAN:CONSTANTVOLUME,PTHP CV FAN 2,Outlet,1
 Non-Parent Node Connection,PTHP 24 HEATING COIL OUTLET NODE,FAN:CONSTANTVOLUME,PTHP CV FAN 24,Inlet,1
 Non-Parent Node Connection,PTHP 24 FAN OUTLET NODE,FAN:CONSTANTVOLUME,PTHP CV FAN 24,Outlet,1
 Non-Parent Node Connection,PTHP 16 HEATING COIL OUTLET NODE,FAN:CONSTANTVOLUME,PTHP CV FAN 16,Inlet,1
 Non-Parent Node Connection,PTHP 16 FAN OUTLET NODE,FAN:CONSTANTVOLUME,PTHP CV FAN 16,Outlet,1
 Non-Parent Node Connection,PTHP 8 HEATING COIL OUTLET NODE,FAN:CONSTANTVOLUME,PTHP CV FAN 8,Inlet,1
 Non-Parent Node Connection,PTHP 8 FAN OUTLET NODE,FAN:CONSTANTVOLUME,PTHP CV FAN 8,Outlet,1
 Non-Parent Node Connection,PTHP 19 HEATING COIL OUTLET NODE,FAN:CONSTANTVOLUME,PTHP CV FAN 19,Inlet,1
 Non-Parent Node Connection,PTHP 19 FAN OUTLET NODE,FAN:CONSTANTVOLUME,PTHP CV FAN 19,Outlet,1
 Non-Parent Node Connection,PTHP 13 HEATING COIL OUTLET NODE,FAN:CONSTANTVOLUME,PTHP CV FAN 13,Inlet,1
 Non-Parent Node Connection,PTHP 13 FAN OUTLET NODE,FAN:CONSTANTVOLUME,PTHP CV FAN 13,Outlet,1
 Non-Parent Node Connection,PTHP 29 HEATING COIL OUTLET NODE,FAN:CONSTANTVOLUME,PTHP CV FAN 29,Inlet,1
 Non-Parent Node Connection,PTHP 29 FAN OUTLET NODE,FAN:CONSTANTVOLUME,PTHP CV FAN 29,Outlet,1
 Non-Parent Node Connection,PTHP 14 HEATING COIL OUTLET NODE,FAN:CONSTANTVOLUME,PTHP CV FAN 14,Inlet,1
 Non-Parent Node Connection,PTHP 14 FAN OUTLET NODE,FAN:CONSTANTVOLUME,PTHP CV FAN 14,Outlet,1
 Non-Parent Node Connection,PTHP 17 HEATING COIL OUTLET NODE,FAN:CONSTANTVOLUME,PTHP CV FAN 17,Inlet,1
 Non-Parent Node Connection,PTHP 17 FAN OUTLET NODE,FAN:CONSTANTVOLUME,PTHP CV FAN 17,Outlet,1
 Non-Parent Node Connection,PTHP 20 HEATING COIL OUTLET NODE,FAN:CONSTANTVOLUME,PTHP CV FAN 20,Inlet,1
 Non-Parent Node Connection,PTHP 20 FAN OUTLET NODE,FAN:CONSTANTVOLUME,PTHP CV FAN 20,Outlet,1
 Non-Parent Node Connection,PTHP 4 HEATING COIL OUTLET NODE,FAN:CONSTANTVOLUME,PTHP CV FAN 4,Inlet,1
 Non-Parent Node Connection,PTHP 4 FAN OUTLET NODE,FAN:CONSTANTVOLUME,PTHP CV FAN 4,Outlet,1
 Non-Parent Node Connection,PTHP 15 HEATING COIL OUTLET NODE,FAN:CONSTANTVOLUME,PTHP CV FAN 15,Inlet,1
 Non-Parent Node Connection,PTHP 15 FAN OUTLET NODE,FAN:CONSTANTVOLUME,PTHP CV FAN 15,Outlet,1
 Non-Parent Node Connection,PTHP 9 HEATING COIL OUTLET NODE,FAN:CONSTANTVOLUME,PTHP CV FAN 9,Inlet,1
 Non-Parent Node Connection,PTHP 9 FAN OUTLET NODE,FAN:CONSTANTVOLUME,PTHP CV FAN 9,Outlet,1
 Non-Parent Node Connection,PTHP 11 HEATING COIL OUTLET NODE,FAN:CONSTANTVOLUME,PTHP CV FAN 11,Inlet,1
 Non-Parent Node Connection,PTHP 11 FAN OUTLET NODE,FAN:CONSTANTVOLUME,PTHP CV FAN 11,Outlet,1
 Non-Parent Node Connection,PTHP 18 HEATING COIL OUTLET NODE,FAN:CONSTANTVOLUME,PTHP CV FAN 18,Inlet,1
 Non-Parent Node Connection,PTHP 18 FAN OUTLET NODE,FAN:CONSTANTVOLUME,PTHP CV FAN 18,Outlet,1
 Non-Parent Node Connection,PTHP 5 HEATING COIL OUTLET NODE,FAN:CONSTANTVOLUME,PTHP CV FAN 5,Inlet,1
 Non-Parent Node Connection,PTHP 5 FAN OUTLET NODE,FAN:CONSTANTVOLUME,PTHP CV FAN 5,Outlet,1
 Non-Parent Node Connection,PTHP 6 HEATING COIL OUTLET NODE,FAN:CONSTANTVOLUME,PTHP CV FAN 6,Inlet,1
 Non-Parent Node Connection,PTHP 6 FAN OUTLET NODE,FAN:CONSTANTVOLUME,PTHP CV FAN 6,Outlet,1
 Non-Parent Node Connection,PTHP 31 HEATING COIL OUTLET NODE,FAN:CONSTANTVOLUME,PTHP CV FAN 31,Inlet,1
 Non-Parent Node Connection,PTHP 31 FAN OUTLET NODE,FAN:CONSTANTVOLUME,PTHP CV FAN 31,Outlet,1
 Non-Parent Node Connection,PTHP 25 HEATING COIL OUTLET NODE,FAN:CONSTANTVOLUME,PTHP CV FAN 25,Inlet,1
 Non-Parent Node Connection,PTHP 25 FAN OUTLET NODE,FAN:CONSTANTVOLUME,PTHP CV FAN 25,Outlet,1
 Non-Parent Node Connection,PTHP 23 HEATING COIL OUTLET NODE,FAN:CONSTANTVOLUME,PTHP CV FAN 23,Inlet,1
 Non-Parent Node Connection,PTHP 23 FAN OUTLET NODE,FAN:CONSTANTVOLUME,PTHP CV FAN 23,Outlet,1
 Non-Parent Node Connection,PTHP 21 HEATING COIL OUTLET NODE,FAN:CONSTANTVOLUME,PTHP CV FAN 21,Inlet,1
 Non-Parent Node Connection,PTHP 21 FAN OUTLET NODE,FAN:CONSTANTVOLUME,PTHP CV FAN 21,Outlet,1
 Non-Parent Node Connection,PTHP 10 HEATING COIL OUTLET NODE,FAN:CONSTANTVOLUME,PTHP CV FAN 10,Inlet,1
 Non-Parent Node Connection,PTHP 10 FAN OUTLET NODE,FAN:CONSTANTVOLUME,PTHP CV FAN 10,Outlet,1
 Non-Parent Node Connection,PTHP 1 HEATING COIL OUTLET NODE,FAN:CONSTANTVOLUME,PTHP CV FAN 1,Inlet,1
 Non-Parent Node Connection,PTHP 1 FAN OUTLET NODE,FAN:CONSTANTVOLUME,PTHP CV FAN 1,Outlet,1
 Non-Parent Node Connection,PTHP 27 HEATING COIL OUTLET NODE,FAN:CONSTANTVOLUME,PTHP CV FAN 27,Inlet,1
 Non-Parent Node Connection,PTHP 27 FAN OUTLET NODE,FAN:CONSTANTVOLUME,PTHP CV FAN 27,Outlet,1
 Non-Parent Node Connection,PTHP 26 HEATING COIL OUTLET NODE,FAN:CONSTANTVOLUME,PTHP CV FAN 26,Inlet,1
 Non-Parent Node Connection,PTHP 26 FAN OUTLET NODE,FAN:CONSTANTVOLUME,PTHP CV FAN 26,Outlet,1
 Non-Parent Node Connection,PTHP 30 HEATING COIL OUTLET NODE,FAN:CONSTANTVOLUME,PTHP CV FAN 30,Inlet,1
 Non-Parent Node Connection,PTHP 30 FAN OUTLET NODE,FAN:CONSTANTVOLUME,PTHP CV FAN 30,Outlet,1
 Non-Parent Node Connection,PTHP 32 HEATING COIL OUTLET NODE,FAN:CONSTANTVOLUME,PTHP CV FAN 32,Inlet,1
 Non-Parent Node Connection,PTHP 32 FAN OUTLET NODE,FAN:CONSTANTVOLUME,PTHP CV FAN 32,Outlet,1
 Non-Parent Node Connection,PTHP 39 HEATING COIL OUTLET NODE,FAN:CONSTANTVOLUME,PTHP CV FAN 39,Inlet,1
 Non-Parent Node Connection,PTHP 39 FAN OUTLET NODE,FAN:CONSTANTVOLUME,PTHP CV FAN 39,Outlet,1
 Non-Parent Node Connection,PTHP FAN OUTLET NODE,COIL:HEATING:ELECTRIC,PTHP ELEC HTG BACKUP COIL,Inlet,1
 Non-Parent Node Connection,NODE 55,COIL:HEATING:ELECTRIC,PTHP ELEC HTG BACKUP COIL,Outlet,1
 Non-Parent Node Connection,PTHP 40 FAN OUTLET NODE,COIL:HEATING:ELECTRIC,PTHP ELEC HTG BACKUP COIL 40,Inlet,1
 Non-Parent Node Connection,NODE 135,COIL:HEATING:ELECTRIC,PTHP ELEC HTG BACKUP COIL 40,Outlet,1
 Non-Parent Node Connection,PTHP 41 FAN OUTLET NODE,COIL:HEATING:ELECTRIC,PTHP ELEC HTG BACKUP COIL 41,Inlet,1
 Non-Parent Node Connection,NODE 137,COIL:HEATING:ELECTRIC,PTHP ELEC HTG BACKUP COIL 41,Outlet,1
 Non-Parent Node Connection,PTHP 42 FAN OUTLET NODE,COIL:HEATING:ELECTRIC,PTHP ELEC HTG BACKUP COIL 42,Inlet,1
 Non-Parent Node Connection,NODE 139,COIL:HEATING:ELECTRIC,PTHP ELEC HTG BACKUP COIL 42,Outlet,1
 Non-Parent Node Connection,PTHP 38 FAN OUTLET NODE,COIL:HEATING:ELECTRIC,PTHP ELEC HTG BACKUP COIL 38,Inlet,1
 Non-Parent Node Connection,NODE 131,COIL:HEATING:ELECTRIC,PTHP ELEC HTG BACKUP COIL 38,Outlet,1
 Non-Parent Node Connection,PTHP 43 FAN OUTLET NODE,COIL:HEATING:ELECTRIC,PTHP ELEC HTG BACKUP COIL 43,Inlet,1
 Non-Parent Node Connection,NODE 141,COIL:HEATING:ELECTRIC,PTHP ELEC HTG BACKUP COIL 43,Outlet,1
 Non-Parent Node Connection,PTHP 34 FAN OUTLET NODE,COIL:HEATING:ELECTRIC,PTHP ELEC HTG BACKUP COIL 34,Inlet,1
 Non-Parent Node Connection,NODE 123,COIL:HEATING:ELECTRIC,PTHP ELEC HTG BACKUP COIL 34,Outlet,1
 Non-Parent Node Connection,PTHP 33 FAN OUTLET NODE,COIL:HEATING:ELECTRIC,PTHP ELEC HTG BACKUP COIL 33,Inlet,1
 Non-Parent Node Connection,NODE 121,COIL:HEATING:ELECTRIC,PTHP ELEC HTG BACKUP COIL 33,Outlet,1
 Non-Parent Node Connection,PTHP 37 FAN OUTLET NODE,COIL:HEATING:ELECTRIC,PTHP ELEC HTG BACKUP COIL 37,Inlet,1
 Non-Parent Node Connection,NODE 129,COIL:HEATING:ELECTRIC,PTHP ELEC HTG BACKUP COIL 37,Outlet,1
 Non-Parent Node Connection,PTHP 36 FAN OUTLET NODE,COIL:HEATING:ELECTRIC,PTHP ELEC HTG BACKUP COIL 36,Inlet,1
 Non-Parent Node Connection,NODE 127,COIL:HEATING:ELECTRIC,PTHP ELEC HTG BACKUP COIL 36,Outlet,1
 Non-Parent Node Connection,PTHP 35 FAN OUTLET NODE,COIL:HEATING:ELECTRIC,PTHP ELEC HTG BACKUP COIL 35,Inlet,1
 Non-Parent Node Connection,NODE 125,COIL:HEATING:ELECTRIC,PTHP ELEC HTG BACKUP COIL 35,Outlet,1
 Non-Parent Node Connection,PTHP 28 FAN OUTLET NODE,COIL:HEATING:ELECTRIC,PTHP ELEC HTG BACKUP COIL 28,Inlet,1
 Non-Parent Node Connection,NODE 111,COIL:HEATING:ELECTRIC,PTHP ELEC HTG BACKUP COIL 28,Outlet,1
 Non-Parent Node Connection,PTHP 3 FAN OUTLET NODE,COIL:HEATING:ELECTRIC,PTHP ELEC HTG BACKUP COIL 3,Inlet,1
 Non-Parent Node Connection,NODE 61,COIL:HEATING:ELECTRIC,PTHP ELEC HTG BACKUP COIL 3,Outlet,1
 Non-Parent Node Connection,PTHP 22 FAN OUTLET NODE,COIL:HEATING:ELECTRIC,PTHP ELEC HTG BACKUP COIL 22,Inlet,1
 Non-Parent Node Connection,NODE 99,COIL:HEATING:ELECTRIC,PTHP ELEC HTG BACKUP COIL 22,Outlet,1
 Non-Parent Node Connection,PTHP 7 FAN OUTLET NODE,COIL:HEATING:ELECTRIC,PTHP ELEC HTG BACKUP COIL 7,Inlet,1
 Non-Parent Node Connection,NODE 69,COIL:HEATING:ELECTRIC,PTHP ELEC HTG BACKUP COIL 7,Outlet,1
 Non-Parent Node Connection,PTHP 12 FAN OUTLET NODE,COIL:HEATING:ELECTRIC,PTHP ELEC HTG BACKUP COIL 12,Inlet,1
 Non-Parent Node Connection,NODE 79,COIL:HEATING:ELECTRIC,PTHP ELEC HTG BACKUP COIL 12,Outlet,1
 Non-Parent Node Connection,PTHP 2 FAN OUTLET NODE,COIL:HEATING:ELECTRIC,PTHP ELEC HTG BACKUP COIL 2,Inlet,1
 Non-Parent Node Connection,NODE 59,COIL:HEATING:ELECTRIC,PTHP ELEC HTG BACKUP COIL 2,Outlet,1
 Non-Parent Node Connection,PTHP 24 FAN OUTLET NODE,COIL:HEATING:ELECTRIC,PTHP ELEC HTG BACKUP COIL 24,Inlet,1
 Non-Parent Node Connection,NODE 103,COIL:HEATING:ELECTRIC,PTHP ELEC HTG BACKUP COIL 24,Outlet,1
 Non-Parent Node Connection,PTHP 16 FAN OUTLET NODE,COIL:HEATING:ELECTRIC,PTHP ELEC HTG BACKUP COIL 16,Inlet,1
 Non-Parent Node Connection,NODE 87,COIL:HEATING:ELECTRIC,PTHP ELEC HTG BACKUP COIL 16,Outlet,1
 Non-Parent Node Connection,PTHP 8 FAN OUTLET NODE,COIL:HEATING:ELECTRIC,PTHP ELEC HTG BACKUP COIL 8,Inlet,1
 Non-Parent Node Connection,NODE 71,COIL:HEATING:ELECTRIC,PTHP ELEC HTG BACKUP COIL 8,Outlet,1
 Non-Parent Node Connection,PTHP 19 FAN OUTLET NODE,COIL:HEATING:ELECTRIC,PTHP ELEC HTG BACKUP COIL 19,Inlet,1
 Non-Parent Node Connection,NODE 93,COIL:HEATING:ELECTRIC,PTHP ELEC HTG BACKUP COIL 19,Outlet,1
 Non-Parent Node Connection,PTHP 13 FAN OUTLET NODE,COIL:HEATING:ELECTRIC,PTHP ELEC HTG BACKUP COIL 13,Inlet,1
 Non-Parent Node Connection,NODE 81,COIL:HEATING:ELECTRIC,PTHP ELEC HTG BACKUP COIL 13,Outlet,1
 Non-Parent Node Connection,PTHP 29 FAN OUTLET NODE,COIL:HEATING:ELECTRIC,PTHP ELEC HTG BACKUP COIL 29,Inlet,1
 Non-Parent Node Connection,NODE 113,COIL:HEATING:ELECTRIC,PTHP ELEC HTG BACKUP COIL 29,Outlet,1
 Non-Parent Node Connection,PTHP 14 FAN OUTLET NODE,COIL:HEATING:ELECTRIC,PTHP ELEC HTG BACKUP COIL 14,Inlet,1
 Non-Parent Node Connection,NODE 83,COIL:HEATING:ELECTRIC,PTHP ELEC HTG BACKUP COIL 14,Outlet,1
 Non-Parent Node Connection,PTHP 17 FAN OUTLET NODE,COIL:HEATING:ELECTRIC,PTHP ELEC HTG BACKUP COIL 17,Inlet,1
 Non-Parent Node Connection,NODE 89,COIL:HEATING:ELECTRIC,PTHP ELEC HTG BACKUP COIL 17,Outlet,1
 Non-Parent Node Connection,PTHP 20 FAN OUTLET NODE,COIL:HEATING:ELECTRIC,PTHP ELEC HTG BACKUP COIL 20,Inlet,1
 Non-Parent Node Connection,NODE 95,COIL:HEATING:ELECTRIC,PTHP ELEC HTG BACKUP COIL 20,Outlet,1
 Non-Parent Node Connection,PTHP 4 FAN OUTLET NODE,COIL:HEATING:ELECTRIC,PTHP ELEC HTG BACKUP COIL 4,Inlet,1
 Non-Parent Node Connection,NODE 63,COIL:HEATING:ELECTRIC,PTHP ELEC HTG BACKUP COIL 4,Outlet,1
 Non-Parent Node Connection,PTHP 15 FAN OUTLET NODE,COIL:HEATING:ELECTRIC,PTHP ELEC HTG BACKUP COIL 15,Inlet,1
 Non-Parent Node Connection,NODE 85,COIL:HEATING:ELECTRIC,PTHP ELEC HTG BACKUP COIL 15,Outlet,1
 Non-Parent Node Connection,PTHP 9 FAN OUTLET NODE,COIL:HEATING:ELECTRIC,PTHP ELEC HTG BACKUP COIL 9,Inlet,1
 Non-Parent Node Connection,NODE 73,COIL:HEATING:ELECTRIC,PTHP ELEC HTG BACKUP COIL 9,Outlet,1
 Non-Parent Node Connection,PTHP 11 FAN OUTLET NODE,COIL:HEATING:ELECTRIC,PTHP ELEC HTG BACKUP COIL 11,Inlet,1
 Non-Parent Node Connection,NODE 77,COIL:HEATING:ELECTRIC,PTHP ELEC HTG BACKUP COIL 11,Outlet,1
 Non-Parent Node Connection,PTHP 18 FAN OUTLET NODE,COIL:HEATING:ELECTRIC,PTHP ELEC HTG BACKUP COIL 18,Inlet,1
 Non-Parent Node Connection,NODE 91,COIL:HEATING:ELECTRIC,PTHP ELEC HTG BACKUP COIL 18,Outlet,1
 Non-Parent Node Connection,PTHP 5 FAN OUTLET NODE,COIL:HEATING:ELECTRIC,PTHP ELEC HTG BACKUP COIL 5,Inlet,1
 Non-Parent Node Connection,NODE 65,COIL:HEATING:ELECTRIC,PTHP ELEC HTG BACKUP COIL 5,Outlet,1
 Non-Parent Node Connection,PTHP 6 FAN OUTLET NODE,COIL:HEATING:ELECTRIC,PTHP ELEC HTG BACKUP COIL 6,Inlet,1
 Non-Parent Node Connection,NODE 67,COIL:HEATING:ELECTRIC,PTHP ELEC HTG BACKUP COIL 6,Outlet,1
 Non-Parent Node Connection,PTHP 31 FAN OUTLET NODE,COIL:HEATING:ELECTRIC,PTHP ELEC HTG BACKUP COIL 31,Inlet,1
 Non-Parent Node Connection,NODE 117,COIL:HEATING:ELECTRIC,PTHP ELEC HTG BACKUP COIL 31,Outlet,1
 Non-Parent Node Connection,PTHP 25 FAN OUTLET NODE,COIL:HEATING:ELECTRIC,PTHP ELEC HTG BACKUP COIL 25,Inlet,1
 Non-Parent Node Connection,NODE 105,COIL:HEATING:ELECTRIC,PTHP ELEC HTG BACKUP COIL 25,Outlet,1
 Non-Parent Node Connection,PTHP 23 FAN OUTLET NODE,COIL:HEATING:ELECTRIC,PTHP ELEC HTG BACKUP COIL 23,Inlet,1
 Non-Parent Node Connection,NODE 101,COIL:HEATING:ELECTRIC,PTHP ELEC HTG BACKUP COIL 23,Outlet,1
 Non-Parent Node Connection,PTHP 21 FAN OUTLET NODE,COIL:HEATING:ELECTRIC,PTHP ELEC HTG BACKUP COIL 21,Inlet,1
 Non-Parent Node Connection,NODE 97,COIL:HEATING:ELECTRIC,PTHP ELEC HTG BACKUP COIL 21,Outlet,1
 Non-Parent Node Connection,PTHP 10 FAN OUTLET NODE,COIL:HEATING:ELECTRIC,PTHP ELEC HTG BACKUP COIL 10,Inlet,1
 Non-Parent Node Connection,NODE 75,COIL:HEATING:ELECTRIC,PTHP ELEC HTG BACKUP COIL 10,Outlet,1
 Non-Parent Node Connection,PTHP 1 FAN OUTLET NODE,COIL:HEATING:ELECTRIC,PTHP ELEC HTG BACKUP COIL 1,Inlet,1
 Non-Parent Node Connection,NODE 57,COIL:HEATING:ELECTRIC,PTHP ELEC HTG BACKUP COIL 1,Outlet,1
 Non-Parent Node Connection,PTHP 27 FAN OUTLET NODE,COIL:HEATING:ELECTRIC,PTHP ELEC HTG BACKUP COIL 27,Inlet,1
 Non-Parent Node Connection,NODE 109,COIL:HEATING:ELECTRIC,PTHP ELEC HTG BACKUP COIL 27,Outlet,1
 Non-Parent Node Connection,PTHP 26 FAN OUTLET NODE,COIL:HEATING:ELECTRIC,PTHP ELEC HTG BACKUP COIL 26,Inlet,1
 Non-Parent Node Connection,NODE 107,COIL:HEATING:ELECTRIC,PTHP ELEC HTG BACKUP COIL 26,Outlet,1
 Non-Parent Node Connection,PTHP 30 FAN OUTLET NODE,COIL:HEATING:ELECTRIC,PTHP ELEC HTG BACKUP COIL 30,Inlet,1
 Non-Parent Node Connection,NODE 115,COIL:HEATING:ELECTRIC,PTHP ELEC HTG BACKUP COIL 30,Outlet,1
 Non-Parent Node Connection,PTHP 32 FAN OUTLET NODE,COIL:HEATING:ELECTRIC,PTHP ELEC HTG BACKUP COIL 32,Inlet,1
 Non-Parent Node Connection,NODE 119,COIL:HEATING:ELECTRIC,PTHP ELEC HTG BACKUP COIL 32,Outlet,1
 Non-Parent Node Connection,PTHP 39 FAN OUTLET NODE,COIL:HEATING:ELECTRIC,PTHP ELEC HTG BACKUP COIL 39,Inlet,1
 Non-Parent Node Connection,NODE 133,COIL:HEATING:ELECTRIC,PTHP ELEC HTG BACKUP COIL 39,Outlet,1
 Non-Parent Node Connection,NODE 45,PUMP:CONSTANTSPEED,PUMP CONSTANT SPEED 1,Inlet,1
 Non-Parent Node Connection,NODE 51,PUMP:CONSTANTSPEED,PUMP CONSTANT SPEED 1,Outlet,1
