{
   "completed_at" : "20240717T105846Z",
   "completed_status" : "Success",
   "created_at" : "20240715T145647Z",
   "current_step" : 6,
   "eplusout_err" : "Program Version,EnergyPlus, Version 23.2.0-7636e6b3e9, YMD=2024.07.17 06:55,\n   ************* Beginning Zone Sizing Calculations\n   ** Warning ** ProcessScheduleInput: Schedule:Day:Interval=\"FRACTION LATENT DEFAULTDAY - 0.05\", Blank Schedule Type Limits Name input -- will not be validated.\n   ** Warning ** ProcessScheduleInput: Schedule:Day:Interval=\"FRACTION SENSIBLE DEFAULTDAY - 0.2\", Blank Schedule Type Limits Name input -- will not be validated.\n   ** Warning ** ProcessScheduleInput: Schedule:Day:Interval=\"SCHEDULE DAY 47\", Blank Schedule Type Limits Name input -- will not be validated.\n   ** Warning ** ProcessScheduleInput: Schedule:Day:Interval=\"SCHEDULE DAY 48\", Blank Schedule Type Limits Name input -- will not be validated.\n   ** Warning ** ProcessScheduleInput: Schedule:Year=\"0.05 HOT WATER LATENT FRACTION\", Blank Schedule Type Limits Name input -- will not be validated.\n   ** Warning ** ProcessScheduleInput: Schedule:Year=\"0.2 HOT WATER SENSIBLE FRACTION\", Blank Schedule Type Limits Name input -- will not be validated.\n   ** Warning ** ProcessScheduleInput: Schedule:Year=\"FRACTION SENSIBLE - 0.05\", Blank Schedule Type Limits Name input -- will not be validated.\n   ** Warning ** ProcessScheduleInput: Schedule:Year=\"FRACTION SENSIBLE - 0.2\", Blank Schedule Type Limits Name input -- will not be validated.\n   ** Warning ** ProcessScheduleInput: Schedule:Compact=\"DEFAULT 0.5 OPEN FRACTIONAL SCHEDULE\", Blank Schedule Type Limits Name input -- will not be validated.\n   ** Warning ** ProcessScheduleInput: Schedule:Constant=\"ALWAYS OFF DISCRETE\", Blank Schedule Type Limits Name input -- will not be validated.\n   ** Warning ** ProcessScheduleInput: Schedule:Constant=\"ALWAYS ON CONTINUOUS\", Blank Schedule Type Limits Name input -- will not be validated.\n   ** Warning ** GetHTSurfaceData: Surfaces with interface to Ground found but no \"Ground Temperatures\" were input.\n   **   ~~~   ** Found first in surface=SURFACE 1\n   **   ~~~   ** Defaults, constant throughout the year of (18.0) will be used.\n   ** Warning ** BuildingSurface:Detailed=\"SURFACE 133\", Sun Exposure=\"SUNEXPOSED\".\n   **   ~~~   ** ..This surface is not exposed to External Environment.  Sun exposure has no effect.\n   ** Warning ** BuildingSurface:Detailed=\"SURFACE 101\", Sun Exposure=\"SUNEXPOSED\".\n   **   ~~~   ** ..This surface is not exposed to External Environment.  Sun exposure has no effect.\n   ** Warning ** BuildingSurface:Detailed=\"SURFACE 88\", Sun Exposure=\"SUNEXPOSED\".\n   **   ~~~   ** ..This surface is not exposed to External Environment.  Sun exposure has no effect.\n   ** Warning ** BuildingSurface:Detailed=\"SURFACE 107\", Sun Exposure=\"SUNEXPOSED\".\n   **   ~~~   ** ..This surface is not exposed to External Environment.  Sun exposure has no effect.\n   ** Warning ** BuildingSurface:Detailed=\"SURFACE 114\", Sun Exposure=\"SUNEXPOSED\".\n   **   ~~~   ** ..This surface is not exposed to External Environment.  Sun exposure has no effect.\n   ** Warning ** BuildingSurface:Detailed=\"SURFACE 94\", Sun Exposure=\"SUNEXPOSED\".\n   **   ~~~   ** ..This surface is not exposed to External Environment.  Sun exposure has no effect.\n   ** Warning ** BuildingSurface:Detailed=\"SURFACE 120\", Sun Exposure=\"SUNEXPOSED\".\n   **   ~~~   ** ..This surface is not exposed to External Environment.  Sun exposure has no effect.\n   ** Warning ** BuildingSurface:Detailed=\"SURFACE 207\", Sun Exposure=\"SUNEXPOSED\".\n   **   ~~~   ** ..This surface is not exposed to External Environment.  Sun exposure has no effect.\n   ** Warning ** BuildingSurface:Detailed=\"SURFACE 126\", Sun Exposure=\"SUNEXPOSED\".\n   **   ~~~   ** ..This surface is not exposed to External Environment.  Sun exposure has no effect.\n   ** Warning ** BuildingSurface:Detailed=\"SURFACE 139\", Sun Exposure=\"SUNEXPOSED\".\n   **   ~~~   ** ..This surface is not exposed to External Environment.  Sun exposure has no effect.\n   ** Warning ** BuildingSurface:Detailed=\"SURFACE 153\", Sun Exposure=\"SUNEXPOSED\".\n   **   ~~~   ** ..This surface is not exposed to External Environment.  Sun exposure has no effect.\n   ** Warning ** BuildingSurface:Detailed=\"SURFACE 160\", Sun Exposure=\"SUNEXPOSED\".\n   **   ~~~   ** ..This surface is not exposed to External Environment.  Sun exposure has no effect.\n   ** Warning ** BuildingSurface:Detailed=\"SURFACE 174\", Sun Exposure=\"SUNEXPOSED\".\n   **   ~~~   ** ..This surface is not exposed to External Environment.  Sun exposure has no effect.\n   ** Warning ** BuildingSurface:Detailed=\"SURFACE 182\", Sun Exposure=\"SUNEXPOSED\".\n   **   ~~~   ** ..This surface is not exposed to External Environment.  Sun exposure has no effect.\n   ** Warning ** BuildingSurface:Detailed=\"SURFACE 213\", Sun Exposure=\"SUNEXPOSED\".\n   **   ~~~   ** ..This surface is not exposed to External Environment.  Sun exposure has no effect.\n   ** Warning ** BuildingSurface:Detailed=\"SURFACE 188\", Sun Exposure=\"SUNEXPOSED\".\n   **   ~~~   ** ..This surface is not exposed to External Environment.  Sun exposure has no effect.\n   ** Warning ** BuildingSurface:Detailed=\"SURFACE 248\", Sun Exposure=\"SUNEXPOSED\".\n   **   ~~~   ** ..This surface is not exposed to External Environment.  Sun exposure has no effect.\n   ** Warning ** BuildingSurface:Detailed=\"SURFACE 194\", Sun Exposure=\"SUNEXPOSED\".\n   **   ~~~   ** ..This surface is not exposed to External Environment.  Sun exposure has no effect.\n   ** Warning ** BuildingSurface:Detailed=\"SURFACE 200\", Sun Exposure=\"SUNEXPOSED\".\n   **   ~~~   ** ..This surface is not exposed to External Environment.  Sun exposure has no effect.\n   ** Warning ** BuildingSurface:Detailed=\"SURFACE 226\", Sun Exposure=\"SUNEXPOSED\".\n   **   ~~~   ** ..This surface is not exposed to External Environment.  Sun exposure has no effect.\n   ** Warning ** BuildingSurface:Detailed=\"SURFACE 233\", Sun Exposure=\"SUNEXPOSED\".\n   **   ~~~   ** ..This surface is not exposed to External Environment.  Sun exposure has no effect.\n   ** Warning ** BuildingSurface:Detailed=\"SURFACE 219\", Sun Exposure=\"SUNEXPOSED\".\n   **   ~~~   ** ..This surface is not exposed to External Environment.  Sun exposure has no effect.\n   ** Warning ** CalculateZoneVolume: 1 zone is not fully enclosed. For more details use:  Output:Diagnostics,DisplayExtrawarnings; \n   ** Warning ** CheckUsedConstructions: There are 60 nominally unused constructions in input.\n   **   ~~~   ** For explicit details on each unused construction, use Output:Diagnostics,DisplayExtraWarnings;\n   ** Warning ** DetermineShadowingCombinations: There are 1 surfaces which are receiving surfaces and are non-convex.\n   **   ~~~   ** ...Shadowing values may be inaccurate. Check .shd report file for more surface shading details\n   **   ~~~   ** ...Add Output:Diagnostics,DisplayExtraWarnings; to see individual warnings for each surface.\n   ** Warning ** GetDXCoils: Coil:Heating:DX:SingleSpeed=\"PTHP 1 SPD DX HTG COIL\" curve values\n   **   ~~~   ** ... Heating Capacity Function of Temperature Curve Name = OS:CURVE:BIQUADRATIC 11 output is not equal to 1.0 (+ or - 10%) at rated conditions.\n   **   ~~~   ** ... Curve output at rated conditions = 0.786\n   ** Warning ** GetDXCoils: Coil:Heating:DX:SingleSpeed=\"PTHP 1 SPD DX HTG COIL 40\" curve values\n   **   ~~~   ** ... Heating Capacity Function of Temperature Curve Name = OS:CURVE:BIQUADRATIC 11 output is not equal to 1.0 (+ or - 10%) at rated conditions.\n   **   ~~~   ** ... Curve output at rated conditions = 0.786\n   ** Warning ** GetDXCoils: Coil:Heating:DX:SingleSpeed=\"PTHP 1 SPD DX HTG COIL 41\" curve values\n   **   ~~~   ** ... Heating Capacity Function of Temperature Curve Name = OS:CURVE:BIQUADRATIC 11 output is not equal to 1.0 (+ or - 10%) at rated conditions.\n   **   ~~~   ** ... Curve output at rated conditions = 0.786\n   ** Warning ** GetDXCoils: Coil:Heating:DX:SingleSpeed=\"PTHP 1 SPD DX HTG COIL 42\" curve values\n   **   ~~~   ** ... Heating Capacity Function of Temperature Curve Name = OS:CURVE:BIQUADRATIC 11 output is not equal to 1.0 (+ or - 10%) at rated conditions.\n   **   ~~~   ** ... Curve output at rated conditions = 0.786\n   ** Warning ** GetDXCoils: Coil:Heating:DX:SingleSpeed=\"PTHP 1 SPD DX HTG COIL 38\" curve values\n   **   ~~~   ** ... Heating Capacity Function of Temperature Curve Name = OS:CURVE:BIQUADRATIC 11 output is not equal to 1.0 (+ or - 10%) at rated conditions.\n   **   ~~~   ** ... Curve output at rated conditions = 0.786\n   ** Warning ** GetDXCoils: Coil:Heating:DX:SingleSpeed=\"PTHP 1 SPD DX HTG COIL 43\" curve values\n   **   ~~~   ** ... Heating Capacity Function of Temperature Curve Name = OS:CURVE:BIQUADRATIC 11 output is not equal to 1.0 (+ or - 10%) at rated conditions.\n   **   ~~~   ** ... Curve output at rated conditions = 0.786\n   ** Warning ** GetDXCoils: Coil:Heating:DX:SingleSpeed=\"PTHP 1 SPD DX HTG COIL 34\" curve values\n   **   ~~~   ** ... Heating Capacity Function of Temperature Curve Name = OS:CURVE:BIQUADRATIC 11 output is not equal to 1.0 (+ or - 10%) at rated conditions.\n   **   ~~~   ** ... Curve output at rated conditions = 0.786\n   ** Warning ** GetDXCoils: Coil:Heating:DX:SingleSpeed=\"PTHP 1 SPD DX HTG COIL 33\" curve values\n   **   ~~~   ** ... Heating Capacity Function of Temperature Curve Name = OS:CURVE:BIQUADRATIC 11 output is not equal to 1.0 (+ or - 10%) at rated conditions.\n   **   ~~~   ** ... Curve output at rated conditions = 0.786\n   ** Warning ** GetDXCoils: Coil:Heating:DX:SingleSpeed=\"PTHP 1 SPD DX HTG COIL 37\" curve values\n   **   ~~~   ** ... Heating Capacity Function of Temperature Curve Name = OS:CURVE:BIQUADRATIC 11 output is not equal to 1.0 (+ or - 10%) at rated conditions.\n   **   ~~~   ** ... Curve output at rated conditions = 0.786\n   ** Warning ** GetDXCoils: Coil:Heating:DX:SingleSpeed=\"PTHP 1 SPD DX HTG COIL 36\" curve values\n   **   ~~~   ** ... Heating Capacity Function of Temperature Curve Name = OS:CURVE:BIQUADRATIC 11 output is not equal to 1.0 (+ or - 10%) at rated conditions.\n   **   ~~~   ** ... Curve output at rated conditions = 0.786\n   ** Warning ** GetDXCoils: Coil:Heating:DX:SingleSpeed=\"PTHP 1 SPD DX HTG COIL 35\" curve values\n   **   ~~~   ** ... Heating Capacity Function of Temperature Curve Name = OS:CURVE:BIQUADRATIC 11 output is not equal to 1.0 (+ or - 10%) at rated conditions.\n   **   ~~~   ** ... Curve output at rated conditions = 0.786\n   ** Warning ** GetDXCoils: Coil:Heating:DX:SingleSpeed=\"PTHP 1 SPD DX HTG COIL 28\" curve values\n   **   ~~~   ** ... Heating Capacity Function of Temperature Curve Name = OS:CURVE:BIQUADRATIC 11 output is not equal to 1.0 (+ or - 10%) at rated conditions.\n   **   ~~~   ** ... Curve output at rated conditions = 0.786\n   ** Warning ** GetDXCoils: Coil:Heating:DX:SingleSpeed=\"PTHP 1 SPD DX HTG COIL 3\" curve values\n   **   ~~~   ** ... Heating Capacity Function of Temperature Curve Name = OS:CURVE:BIQUADRATIC 11 output is not equal to 1.0 (+ or - 10%) at rated conditions.\n   **   ~~~   ** ... Curve output at rated conditions = 0.786\n   ** Warning ** GetDXCoils: Coil:Heating:DX:SingleSpeed=\"PTHP 1 SPD DX HTG COIL 22\" curve values\n   **   ~~~   ** ... Heating Capacity Function of Temperature Curve Name = OS:CURVE:BIQUADRATIC 11 output is not equal to 1.0 (+ or - 10%) at rated conditions.\n   **   ~~~   ** ... Curve output at rated conditions = 0.786\n   ** Warning ** GetDXCoils: Coil:Heating:DX:SingleSpeed=\"PTHP 1 SPD DX HTG COIL 7\" curve values\n   **   ~~~   ** ... Heating Capacity Function of Temperature Curve Name = OS:CURVE:BIQUADRATIC 11 output is not equal to 1.0 (+ or - 10%) at rated conditions.\n   **   ~~~   ** ... Curve output at rated conditions = 0.786\n   ** Warning ** GetDXCoils: Coil:Heating:DX:SingleSpeed=\"PTHP 1 SPD DX HTG COIL 12\" curve values\n   **   ~~~   ** ... Heating Capacity Function of Temperature Curve Name = OS:CURVE:BIQUADRATIC 11 output is not equal to 1.0 (+ or - 10%) at rated conditions.\n   **   ~~~   ** ... Curve output at rated conditions = 0.786\n   ** Warning ** GetDXCoils: Coil:Heating:DX:SingleSpeed=\"PTHP 1 SPD DX HTG COIL 2\" curve values\n   **   ~~~   ** ... Heating Capacity Function of Temperature Curve Name = OS:CURVE:BIQUADRATIC 11 output is not equal to 1.0 (+ or - 10%) at rated conditions.\n   **   ~~~   ** ... Curve output at rated conditions = 0.786\n   ** Warning ** GetDXCoils: Coil:Heating:DX:SingleSpeed=\"PTHP 1 SPD DX HTG COIL 24\" curve values\n   **   ~~~   ** ... Heating Capacity Function of Temperature Curve Name = OS:CURVE:BIQUADRATIC 11 output is not equal to 1.0 (+ or - 10%) at rated conditions.\n   **   ~~~   ** ... Curve output at rated conditions = 0.786\n   ** Warning ** GetDXCoils: Coil:Heating:DX:SingleSpeed=\"PTHP 1 SPD DX HTG COIL 16\" curve values\n   **   ~~~   ** ... Heating Capacity Function of Temperature Curve Name = OS:CURVE:BIQUADRATIC 11 output is not equal to 1.0 (+ or - 10%) at rated conditions.\n   **   ~~~   ** ... Curve output at rated conditions = 0.786\n   ** Warning ** GetDXCoils: Coil:Heating:DX:SingleSpeed=\"PTHP 1 SPD DX HTG COIL 8\" curve values\n   **   ~~~   ** ... Heating Capacity Function of Temperature Curve Name = OS:CURVE:BIQUADRATIC 11 output is not equal to 1.0 (+ or - 10%) at rated conditions.\n   **   ~~~   ** ... Curve output at rated conditions = 0.786\n   ** Warning ** GetDXCoils: Coil:Heating:DX:SingleSpeed=\"PTHP 1 SPD DX HTG COIL 19\" curve values\n   **   ~~~   ** ... Heating Capacity Function of Temperature Curve Name = OS:CURVE:BIQUADRATIC 11 output is not equal to 1.0 (+ or - 10%) at rated conditions.\n   **   ~~~   ** ... Curve output at rated conditions = 0.786\n   ** Warning ** GetDXCoils: Coil:Heating:DX:SingleSpeed=\"PTHP 1 SPD DX HTG COIL 13\" curve values\n   **   ~~~   ** ... Heating Capacity Function of Temperature Curve Name = OS:CURVE:BIQUADRATIC 11 output is not equal to 1.0 (+ or - 10%) at rated conditions.\n   **   ~~~   ** ... Curve output at rated conditions = 0.786\n   ** Warning ** GetDXCoils: Coil:Heating:DX:SingleSpeed=\"PTHP 1 SPD DX HTG COIL 29\" curve values\n   **   ~~~   ** ... Heating Capacity Function of Temperature Curve Name = OS:CURVE:BIQUADRATIC 11 output is not equal to 1.0 (+ or - 10%) at rated conditions.\n   **   ~~~   ** ... Curve output at rated conditions = 0.786\n   ** Warning ** GetDXCoils: Coil:Heating:DX:SingleSpeed=\"PTHP 1 SPD DX HTG COIL 14\" curve values\n   **   ~~~   ** ... Heating Capacity Function of Temperature Curve Name = OS:CURVE:BIQUADRATIC 11 output is not equal to 1.0 (+ or - 10%) at rated conditions.\n   **   ~~~   ** ... Curve output at rated conditions = 0.786\n   ** Warning ** GetDXCoils: Coil:Heating:DX:SingleSpeed=\"PTHP 1 SPD DX HTG COIL 17\" curve values\n   **   ~~~   ** ... Heating Capacity Function of Temperature Curve Name = OS:CURVE:BIQUADRATIC 11 output is not equal to 1.0 (+ or - 10%) at rated conditions.\n   **   ~~~   ** ... Curve output at rated conditions = 0.786\n   ** Warning ** GetDXCoils: Coil:Heating:DX:SingleSpeed=\"PTHP 1 SPD DX HTG COIL 20\" curve values\n   **   ~~~   ** ... Heating Capacity Function of Temperature Curve Name = OS:CURVE:BIQUADRATIC 11 output is not equal to 1.0 (+ or - 10%) at rated conditions.\n   **   ~~~   ** ... Curve output at rated conditions = 0.786\n   ** Warning ** GetDXCoils: Coil:Heating:DX:SingleSpeed=\"PTHP 1 SPD DX HTG COIL 4\" curve values\n   **   ~~~   ** ... Heating Capacity Function of Temperature Curve Name = OS:CURVE:BIQUADRATIC 11 output is not equal to 1.0 (+ or - 10%) at rated conditions.\n   **   ~~~   ** ... Curve output at rated conditions = 0.786\n   ** Warning ** GetDXCoils: Coil:Heating:DX:SingleSpeed=\"PTHP 1 SPD DX HTG COIL 15\" curve values\n   **   ~~~   ** ... Heating Capacity Function of Temperature Curve Name = OS:CURVE:BIQUADRATIC 11 output is not equal to 1.0 (+ or - 10%) at rated conditions.\n   **   ~~~   ** ... Curve output at rated conditions = 0.786\n   ** Warning ** GetDXCoils: Coil:Heating:DX:SingleSpeed=\"PTHP 1 SPD DX HTG COIL 9\" curve values\n   **   ~~~   ** ... Heating Capacity Function of Temperature Curve Name = OS:CURVE:BIQUADRATIC 11 output is not equal to 1.0 (+ or - 10%) at rated conditions.\n   **   ~~~   ** ... Curve output at rated conditions = 0.786\n   ** Warning ** GetDXCoils: Coil:Heating:DX:SingleSpeed=\"PTHP 1 SPD DX HTG COIL 11\" curve values\n   **   ~~~   ** ... Heating Capacity Function of Temperature Curve Name = OS:CURVE:BIQUADRATIC 11 output is not equal to 1.0 (+ or - 10%) at rated conditions.\n   **   ~~~   ** ... Curve output at rated conditions = 0.786\n   ** Warning ** GetDXCoils: Coil:Heating:DX:SingleSpeed=\"PTHP 1 SPD DX HTG COIL 18\" curve values\n   **   ~~~   ** ... Heating Capacity Function of Temperature Curve Name = OS:CURVE:BIQUADRATIC 11 output is not equal to 1.0 (+ or - 10%) at rated conditions.\n   **   ~~~   ** ... Curve output at rated conditions = 0.786\n   ** Warning ** GetDXCoils: Coil:Heating:DX:SingleSpeed=\"PTHP 1 SPD DX HTG COIL 5\" curve values\n   **   ~~~   ** ... Heating Capacity Function of Temperature Curve Name = OS:CURVE:BIQUADRATIC 11 output is not equal to 1.0 (+ or - 10%) at rated conditions.\n   **   ~~~   ** ... Curve output at rated conditions = 0.786\n   ** Warning ** GetDXCoils: Coil:Heating:DX:SingleSpeed=\"PTHP 1 SPD DX HTG COIL 6\" curve values\n   **   ~~~   ** ... Heating Capacity Function of Temperature Curve Name = OS:CURVE:BIQUADRATIC 11 output is not equal to 1.0 (+ or - 10%) at rated conditions.\n   **   ~~~   ** ... Curve output at rated conditions = 0.786\n   ** Warning ** GetDXCoils: Coil:Heating:DX:SingleSpeed=\"PTHP 1 SPD DX HTG COIL 31\" curve values\n   **   ~~~   ** ... Heating Capacity Function of Temperature Curve Name = OS:CURVE:BIQUADRATIC 11 output is not equal to 1.0 (+ or - 10%) at rated conditions.\n   **   ~~~   ** ... Curve output at rated conditions = 0.786\n   ** Warning ** GetDXCoils: Coil:Heating:DX:SingleSpeed=\"PTHP 1 SPD DX HTG COIL 25\" curve values\n   **   ~~~   ** ... Heating Capacity Function of Temperature Curve Name = OS:CURVE:BIQUADRATIC 11 output is not equal to 1.0 (+ or - 10%) at rated conditions.\n   **   ~~~   ** ... Curve output at rated conditions = 0.786\n   ** Warning ** GetDXCoils: Coil:Heating:DX:SingleSpeed=\"PTHP 1 SPD DX HTG COIL 23\" curve values\n   **   ~~~   ** ... Heating Capacity Function of Temperature Curve Name = OS:CURVE:BIQUADRATIC 11 output is not equal to 1.0 (+ or - 10%) at rated conditions.\n   **   ~~~   ** ... Curve output at rated conditions = 0.786\n   ** Warning ** GetDXCoils: Coil:Heating:DX:SingleSpeed=\"PTHP 1 SPD DX HTG COIL 21\" curve values\n   **   ~~~   ** ... Heating Capacity Function of Temperature Curve Name = OS:CURVE:BIQUADRATIC 11 output is not equal to 1.0 (+ or - 10%) at rated conditions.\n   **   ~~~   ** ... Curve output at rated conditions = 0.786\n   ** Warning ** GetDXCoils: Coil:Heating:DX:SingleSpeed=\"PTHP 1 SPD DX HTG COIL 10\" curve values\n   **   ~~~   ** ... Heating Capacity Function of Temperature Curve Name = OS:CURVE:BIQUADRATIC 11 output is not equal to 1.0 (+ or - 10%) at rated conditions.\n   **   ~~~   ** ... Curve output at rated conditions = 0.786\n   ** Warning ** GetDXCoils: Coil:Heating:DX:SingleSpeed=\"PTHP 1 SPD DX HTG COIL 1\" curve values\n   **   ~~~   ** ... Heating Capacity Function of Temperature Curve Name = OS:CURVE:BIQUADRATIC 11 output is not equal to 1.0 (+ or - 10%) at rated conditions.\n   **   ~~~   ** ... Curve output at rated conditions = 0.786\n   ** Warning ** GetDXCoils: Coil:Heating:DX:SingleSpeed=\"PTHP 1 SPD DX HTG COIL 27\" curve values\n   **   ~~~   ** ... Heating Capacity Function of Temperature Curve Name = OS:CURVE:BIQUADRATIC 11 output is not equal to 1.0 (+ or - 10%) at rated conditions.\n   **   ~~~   ** ... Curve output at rated conditions = 0.786\n   ** Warning ** GetDXCoils: Coil:Heating:DX:SingleSpeed=\"PTHP 1 SPD DX HTG COIL 26\" curve values\n   **   ~~~   ** ... Heating Capacity Function of Temperature Curve Name = OS:CURVE:BIQUADRATIC 11 output is not equal to 1.0 (+ or - 10%) at rated conditions.\n   **   ~~~   ** ... Curve output at rated conditions = 0.786\n   ** Warning ** GetDXCoils: Coil:Heating:DX:SingleSpeed=\"PTHP 1 SPD DX HTG COIL 30\" curve values\n   **   ~~~   ** ... Heating Capacity Function of Temperature Curve Name = OS:CURVE:BIQUADRATIC 11 output is not equal to 1.0 (+ or - 10%) at rated conditions.\n   **   ~~~   ** ... Curve output at rated conditions = 0.786\n   ** Warning ** GetDXCoils: Coil:Heating:DX:SingleSpeed=\"PTHP 1 SPD DX HTG COIL 32\" curve values\n   **   ~~~   ** ... Heating Capacity Function of Temperature Curve Name = OS:CURVE:BIQUADRATIC 11 output is not equal to 1.0 (+ or - 10%) at rated conditions.\n   **   ~~~   ** ... Curve output at rated conditions = 0.786\n   ** Warning ** GetDXCoils: Coil:Heating:DX:SingleSpeed=\"PTHP 1 SPD DX HTG COIL 39\" curve values\n   **   ~~~   ** ... Heating Capacity Function of Temperature Curve Name = OS:CURVE:BIQUADRATIC 11 output is not equal to 1.0 (+ or - 10%) at rated conditions.\n   **   ~~~   ** ... Curve output at rated conditions = 0.786\n   ************* Beginning Plant Sizing Calculations\n   ** Warning ** The Standard Ratings is calculated for Coil:Heating:DX:SingleSpeed = PTHP 1 SPD DX HTG COIL but not at the AHRI test condition due to curve out of bound.\n   **   ~~~   **  Review the Standard Ratings calculations in the Engineering Reference for this coil type. Also, use Output:Diagnostics, DisplayExtraWarnings for further guidance.\n   ** Warning ** Sizing: Coil:Heating:DX:SingleSpeed PTHP 1 SPD DX HTG COIL: Rated air volume flow rate per watt of rated total heating capacity is out of range.\n   **   ~~~   ** Min Rated Vol Flow Per Watt=[4.027E-005], Rated Vol Flow Per Watt=[1560043654927186.750], Max Rated Vol Flow Per Watt=[6.041E-005]. See Input-Output Reference Manual for valid range.\n   ** Warning ** Coil:Heating:DX:SingleSpeed \"PTHP 1 SPD DX HTG COIL\" - Air volume flow rate per watt of rated total heating capacity is out of range at 1553258707715131. m3/s/W.\n   **   ~~~   **  During Warmup, Environment=MONTREAL INT'L ANN CLG .4% CONDNS DB=>MWB, at Simulation time=07/21 00:00 - 00:10\n   **   ~~~   ** Expected range for VolumeFlowPerRatedTotalCapacity=[2.684E-005--8.056E-005]\n   **   ~~~   ** Possible causes include inconsistent air flow rates in system components or\n   **   ~~~   ** inconsistent supply air fan operation modes in coil and unitary system objects.\n   ** Warning ** The Standard Ratings is calculated for Coil:Heating:DX:SingleSpeed = PTHP 1 SPD DX HTG COIL 40 but not at the AHRI test condition due to curve out of bound.\n   **   ~~~   **  Review the Standard Ratings calculations in the Engineering Reference for this coil type. Also, use Output:Diagnostics, DisplayExtraWarnings for further guidance.\n   ** Warning ** Sizing: Coil:Heating:DX:SingleSpeed PTHP 1 SPD DX HTG COIL 40: Rated air volume flow rate per watt of rated total heating capacity is out of range.\n   **   ~~~   ** Min Rated Vol Flow Per Watt=[4.027E-005], Rated Vol Flow Per Watt=[2144455760305183.000], Max Rated Vol Flow Per Watt=[6.041E-005]. See Input-Output Reference Manual for valid range.\n   ** Warning ** Coil:Heating:DX:SingleSpeed \"PTHP 1 SPD DX HTG COIL 40\" - Air volume flow rate per watt of rated total heating capacity is out of range at 2135129085960971. m3/s/W.\n   **   ~~~   **  During Warmup, Environment=MONTREAL INT'L ANN CLG .4% CONDNS DB=>MWB, at Simulation time=07/21 00:00 - 00:10\n   **   ~~~   ** Expected range for VolumeFlowPerRatedTotalCapacity=[2.684E-005--8.056E-005]\n   **   ~~~   ** Possible causes include inconsistent air flow rates in system components or\n   **   ~~~   ** inconsistent supply air fan operation modes in coil and unitary system objects.\n   ** Warning ** The Standard Ratings is calculated for Coil:Heating:DX:SingleSpeed = PTHP 1 SPD DX HTG COIL 41 but not at the AHRI test condition due to curve out of bound.\n   **   ~~~   **  Review the Standard Ratings calculations in the Engineering Reference for this coil type. Also, use Output:Diagnostics, DisplayExtraWarnings for further guidance.\n   ** Warning ** Sizing: Coil:Heating:DX:SingleSpeed PTHP 1 SPD DX HTG COIL 41: Rated air volume flow rate per watt of rated total heating capacity is out of range.\n   **   ~~~   ** Min Rated Vol Flow Per Watt=[4.027E-005], Rated Vol Flow Per Watt=[1457858680218479.500], Max Rated Vol Flow Per Watt=[6.041E-005]. See Input-Output Reference Manual for valid range.\n   ** Warning ** Coil:Heating:DX:SingleSpeed \"PTHP 1 SPD DX HTG COIL 41\" - Air volume flow rate per watt of rated total heating capacity is out of range at 1451518156248731. m3/s/W.\n   **   ~~~   **  During Warmup, Environment=MONTREAL INT'L ANN CLG .4% CONDNS DB=>MWB, at Simulation time=07/21 00:00 - 00:10\n   **   ~~~   ** Expected range for VolumeFlowPerRatedTotalCapacity=[2.684E-005--8.056E-005]\n   **   ~~~   ** Possible causes include inconsistent air flow rates in system components or\n   **   ~~~   ** inconsistent supply air fan operation modes in coil and unitary system objects.\n   ** Warning ** The Standard Ratings is calculated for Coil:Heating:DX:SingleSpeed = PTHP 1 SPD DX HTG COIL 42 but not at the AHRI test condition due to curve out of bound.\n   **   ~~~   **  Review the Standard Ratings calculations in the Engineering Reference for this coil type. Also, use Output:Diagnostics, DisplayExtraWarnings for further guidance.\n   ** Warning ** Sizing: Coil:Heating:DX:SingleSpeed PTHP 1 SPD DX HTG COIL 42: Rated air volume flow rate per watt of rated total heating capacity is out of range.\n   **   ~~~   ** Min Rated Vol Flow Per Watt=[4.027E-005], Rated Vol Flow Per Watt=[2419519722089925.000], Max Rated Vol Flow Per Watt=[6.041E-005]. See Input-Output Reference Manual for valid range.\n   ** Warning ** Coil:Heating:DX:SingleSpeed \"PTHP 1 SPD DX HTG COIL 42\" - Air volume flow rate per watt of rated total heating capacity is out of range at 2408996738620162. m3/s/W.\n   **   ~~~   **  During Warmup, Environment=MONTREAL INT'L ANN CLG .4% CONDNS DB=>MWB, at Simulation time=07/21 00:00 - 00:10\n   **   ~~~   ** Expected range for VolumeFlowPerRatedTotalCapacity=[2.684E-005--8.056E-005]\n   **   ~~~   ** Possible causes include inconsistent air flow rates in system components or\n   **   ~~~   ** inconsistent supply air fan operation modes in coil and unitary system objects.\n   ** Warning ** The Standard Ratings is calculated for Coil:Heating:DX:SingleSpeed = PTHP 1 SPD DX HTG COIL 38 but not at the AHRI test condition due to curve out of bound.\n   **   ~~~   **  Review the Standard Ratings calculations in the Engineering Reference for this coil type. Also, use Output:Diagnostics, DisplayExtraWarnings for further guidance.\n   ** Warning ** Sizing: Coil:Heating:DX:SingleSpeed PTHP 1 SPD DX HTG COIL 38: Rated air volume flow rate per watt of rated total heating capacity is out of range.\n   **   ~~~   ** Min Rated Vol Flow Per Watt=[4.027E-005], Rated Vol Flow Per Watt=[1540343326471524.250], Max Rated Vol Flow Per Watt=[6.041E-005]. See Input-Output Reference Manual for valid range.\n   ** Warning ** Coil:Heating:DX:SingleSpeed \"PTHP 1 SPD DX HTG COIL 38\" - Air volume flow rate per watt of rated total heating capacity is out of range at 1533644059995523. m3/s/W.\n   **   ~~~   **  During Warmup, Environment=MONTREAL INT'L ANN CLG .4% CONDNS DB=>MWB, at Simulation time=07/21 00:00 - 00:10\n   **   ~~~   ** Expected range for VolumeFlowPerRatedTotalCapacity=[2.684E-005--8.056E-005]\n   **   ~~~   ** Possible causes include inconsistent air flow rates in system components or\n   **   ~~~   ** inconsistent supply air fan operation modes in coil and unitary system objects.\n   ** Warning ** The Standard Ratings is calculated for Coil:Heating:DX:SingleSpeed = PTHP 1 SPD DX HTG COIL 43 but not at the AHRI test condition due to curve out of bound.\n   **   ~~~   **  Review the Standard Ratings calculations in the Engineering Reference for this coil type. Also, use Output:Diagnostics, DisplayExtraWarnings for further guidance.\n   ** Warning ** Sizing: Coil:Heating:DX:SingleSpeed PTHP 1 SPD DX HTG COIL 43: Rated air volume flow rate per watt of rated total heating capacity is out of range.\n   **   ~~~   ** Min Rated Vol Flow Per Watt=[4.027E-005], Rated Vol Flow Per Watt=[1885568407497140.000], Max Rated Vol Flow Per Watt=[6.041E-005]. See Input-Output Reference Manual for valid range.\n   ** Warning ** Coil:Heating:DX:SingleSpeed \"PTHP 1 SPD DX HTG COIL 43\" - Air volume flow rate per watt of rated total heating capacity is out of range at 1877367686915263. m3/s/W.\n   **   ~~~   **  During Warmup, Environment=MONTREAL INT'L ANN CLG .4% CONDNS DB=>MWB, at Simulation time=07/21 00:00 - 00:10\n   **   ~~~   ** Expected range for VolumeFlowPerRatedTotalCapacity=[2.684E-005--8.056E-005]\n   **   ~~~   ** Possible causes include inconsistent air flow rates in system components or\n   **   ~~~   ** inconsistent supply air fan operation modes in coil and unitary system objects.\n   ** Warning ** The Standard Ratings is calculated for Coil:Heating:DX:SingleSpeed = PTHP 1 SPD DX HTG COIL 34 but not at the AHRI test condition due to curve out of bound.\n   **   ~~~   **  Review the Standard Ratings calculations in the Engineering Reference for this coil type. Also, use Output:Diagnostics, DisplayExtraWarnings for further guidance.\n   ** Warning ** Sizing: Coil:Heating:DX:SingleSpeed PTHP 1 SPD DX HTG COIL 34: Rated air volume flow rate per watt of rated total heating capacity is out of range.\n   **   ~~~   ** Min Rated Vol Flow Per Watt=[4.027E-005], Rated Vol Flow Per Watt=[1485362447179492.750], Max Rated Vol Flow Per Watt=[6.041E-005]. See Input-Output Reference Manual for valid range.\n   ** Warning ** Coil:Heating:DX:SingleSpeed \"PTHP 1 SPD DX HTG COIL 34\" - Air volume flow rate per watt of rated total heating capacity is out of range at 1478902303732190. m3/s/W.\n   **   ~~~   **  During Warmup, Environment=MONTREAL INT'L ANN CLG .4% CONDNS DB=>MWB, at Simulation time=07/21 00:00 - 00:10\n   **   ~~~   ** Expected range for VolumeFlowPerRatedTotalCapacity=[2.684E-005--8.056E-005]\n   **   ~~~   ** Possible causes include inconsistent air flow rates in system components or\n   **   ~~~   ** inconsistent supply air fan operation modes in coil and unitary system objects.\n   ** Warning ** The Standard Ratings is calculated for Coil:Heating:DX:SingleSpeed = PTHP 1 SPD DX HTG COIL 33 but not at the AHRI test condition due to curve out of bound.\n   **   ~~~   **  Review the Standard Ratings calculations in the Engineering Reference for this coil type. Also, use Output:Diagnostics, DisplayExtraWarnings for further guidance.\n   ** Warning ** Sizing: Coil:Heating:DX:SingleSpeed PTHP 1 SPD DX HTG COIL 33: Rated air volume flow rate per watt of rated total heating capacity is out of range.\n   **   ~~~   ** Min Rated Vol Flow Per Watt=[4.027E-005], Rated Vol Flow Per Watt=[1498976031633717.500], Max Rated Vol Flow Per Watt=[6.041E-005]. See Input-Output Reference Manual for valid range.\n   ** Warning ** Coil:Heating:DX:SingleSpeed \"PTHP 1 SPD DX HTG COIL 33\" - Air volume flow rate per watt of rated total heating capacity is out of range at 1492456679938238. m3/s/W.\n   **   ~~~   **  During Warmup, Environment=MONTREAL INT'L ANN CLG .4% CONDNS DB=>MWB, at Simulation time=07/21 00:00 - 00:10\n   **   ~~~   ** Expected range for VolumeFlowPerRatedTotalCapacity=[2.684E-005--8.056E-005]\n   **   ~~~   ** Possible causes include inconsistent air flow rates in system components or\n   **   ~~~   ** inconsistent supply air fan operation modes in coil and unitary system objects.\n   ** Warning ** The Standard Ratings is calculated for Coil:Heating:DX:SingleSpeed = PTHP 1 SPD DX HTG COIL 37 but not at the AHRI test condition due to curve out of bound.\n   **   ~~~   **  Review the Standard Ratings calculations in the Engineering Reference for this coil type. Also, use Output:Diagnostics, DisplayExtraWarnings for further guidance.\n   ** Warning ** Sizing: Coil:Heating:DX:SingleSpeed PTHP 1 SPD DX HTG COIL 37: Rated air volume flow rate per watt of rated total heating capacity is out of range.\n   **   ~~~   ** Min Rated Vol Flow Per Watt=[4.027E-005], Rated Vol Flow Per Watt=[1901766046400113.750], Max Rated Vol Flow Per Watt=[6.041E-005]. See Input-Output Reference Manual for valid range.\n   ** Warning ** Coil:Heating:DX:SingleSpeed \"PTHP 1 SPD DX HTG COIL 37\" - Air volume flow rate per watt of rated total heating capacity is out of range at 1893494878991592. m3/s/W.\n   **   ~~~   **  During Warmup, Environment=MONTREAL INT'L ANN CLG .4% CONDNS DB=>MWB, at Simulation time=07/21 00:00 - 00:10\n   **   ~~~   ** Expected range for VolumeFlowPerRatedTotalCapacity=[2.684E-005--8.056E-005]\n   **   ~~~   ** Possible causes include inconsistent air flow rates in system components or\n   **   ~~~   ** inconsistent supply air fan operation modes in coil and unitary system objects.\n   ** Warning ** The Standard Ratings is calculated for Coil:Heating:DX:SingleSpeed = PTHP 1 SPD DX HTG COIL 36 but not at the AHRI test condition due to curve out of bound.\n   **   ~~~   **  Review the Standard Ratings calculations in the Engineering Reference for this coil type. Also, use Output:Diagnostics, DisplayExtraWarnings for further guidance.\n   ** Warning ** Sizing: Coil:Heating:DX:SingleSpeed PTHP 1 SPD DX HTG COIL 36: Rated air volume flow rate per watt of rated total heating capacity is out of range.\n   **   ~~~   ** Min Rated Vol Flow Per Watt=[4.027E-005], Rated Vol Flow Per Watt=[4099738517497279.500], Max Rated Vol Flow Per Watt=[6.041E-005]. See Input-Output Reference Manual for valid range.\n   ** Warning ** Coil:Heating:DX:SingleSpeed \"PTHP 1 SPD DX HTG COIL 36\" - Air volume flow rate per watt of rated total heating capacity is out of range at 4081907920682507. m3/s/W.\n   **   ~~~   **  During Warmup, Environment=MONTREAL INT'L ANN CLG .4% CONDNS DB=>MWB, at Simulation time=07/21 00:00 - 00:10\n   **   ~~~   ** Expected range for VolumeFlowPerRatedTotalCapacity=[2.684E-005--8.056E-005]\n   **   ~~~   ** Possible causes include inconsistent air flow rates in system components or\n   **   ~~~   ** inconsistent supply air fan operation modes in coil and unitary system objects.\n   ** Warning ** The Standard Ratings is calculated for Coil:Heating:DX:SingleSpeed = PTHP 1 SPD DX HTG COIL 35 but not at the AHRI test condition due to curve out of bound.\n   **   ~~~   **  Review the Standard Ratings calculations in the Engineering Reference for this coil type. Also, use Output:Diagnostics, DisplayExtraWarnings for further guidance.\n   ** Warning ** Sizing: Coil:Heating:DX:SingleSpeed PTHP 1 SPD DX HTG COIL 35: Rated air volume flow rate per watt of rated total heating capacity is out of range.\n   **   ~~~   ** Min Rated Vol Flow Per Watt=[4.027E-005], Rated Vol Flow Per Watt=[1228590842278982.750], Max Rated Vol Flow Per Watt=[6.041E-005]. See Input-Output Reference Manual for valid range.\n   ** Warning ** Coil:Heating:DX:SingleSpeed \"PTHP 1 SPD DX HTG COIL 35\" - Air volume flow rate per watt of rated total heating capacity is out of range at 1223247450775963. m3/s/W.\n   **   ~~~   **  During Warmup, Environment=MONTREAL INT'L ANN CLG .4% CONDNS DB=>MWB, at Simulation time=07/21 00:00 - 00:10\n   **   ~~~   ** Expected range for VolumeFlowPerRatedTotalCapacity=[2.684E-005--8.056E-005]\n   **   ~~~   ** Possible causes include inconsistent air flow rates in system components or\n   **   ~~~   ** inconsistent supply air fan operation modes in coil and unitary system objects.\n   ** Warning ** The Standard Ratings is calculated for Coil:Heating:DX:SingleSpeed = PTHP 1 SPD DX HTG COIL 28 but not at the AHRI test condition due to curve out of bound.\n   **   ~~~   **  Review the Standard Ratings calculations in the Engineering Reference for this coil type. Also, use Output:Diagnostics, DisplayExtraWarnings for further guidance.\n   ** Warning ** Sizing: Coil:Heating:DX:SingleSpeed PTHP 1 SPD DX HTG COIL 28: Rated air volume flow rate per watt of rated total heating capacity is out of range.\n   **   ~~~   ** Min Rated Vol Flow Per Watt=[4.027E-005], Rated Vol Flow Per Watt=[1507848032639247.250], Max Rated Vol Flow Per Watt=[6.041E-005]. See Input-Output Reference Manual for valid range.\n   ** Warning ** Coil:Heating:DX:SingleSpeed \"PTHP 1 SPD DX HTG COIL 28\" - Air volume flow rate per watt of rated total heating capacity is out of range at 1501290094806580. m3/s/W.\n   **   ~~~   **  During Warmup, Environment=MONTREAL INT'L ANN CLG .4% CONDNS DB=>MWB, at Simulation time=07/21 00:00 - 00:10\n   **   ~~~   ** Expected range for VolumeFlowPerRatedTotalCapacity=[2.684E-005--8.056E-005]\n   **   ~~~   ** Possible causes include inconsistent air flow rates in system components or\n   **   ~~~   ** inconsistent supply air fan operation modes in coil and unitary system objects.\n   ** Warning ** The Standard Ratings is calculated for Coil:Heating:DX:SingleSpeed = PTHP 1 SPD DX HTG COIL 3 but not at the AHRI test condition due to curve out of bound.\n   **   ~~~   **  Review the Standard Ratings calculations in the Engineering Reference for this coil type. Also, use Output:Diagnostics, DisplayExtraWarnings for further guidance.\n   ** Warning ** Sizing: Coil:Heating:DX:SingleSpeed PTHP 1 SPD DX HTG COIL 3: Rated air volume flow rate per watt of rated total heating capacity is out of range.\n   **   ~~~   ** Min Rated Vol Flow Per Watt=[4.027E-005], Rated Vol Flow Per Watt=[1215354269243744.250], Max Rated Vol Flow Per Watt=[6.041E-005]. See Input-Output Reference Manual for valid range.\n   ** Warning ** Coil:Heating:DX:SingleSpeed \"PTHP 1 SPD DX HTG COIL 3\" - Air volume flow rate per watt of rated total heating capacity is out of range at 1210068446289546. m3/s/W.\n   **   ~~~   **  During Warmup, Environment=MONTREAL INT'L ANN CLG .4% CONDNS DB=>MWB, at Simulation time=07/21 00:00 - 00:10\n   **   ~~~   ** Expected range for VolumeFlowPerRatedTotalCapacity=[2.684E-005--8.056E-005]\n   **   ~~~   ** Possible causes include inconsistent air flow rates in system components or\n   **   ~~~   ** inconsistent supply air fan operation modes in coil and unitary system objects.\n   ** Warning ** The Standard Ratings is calculated for Coil:Heating:DX:SingleSpeed = PTHP 1 SPD DX HTG COIL 22 but not at the AHRI test condition due to curve out of bound.\n   **   ~~~   **  Review the Standard Ratings calculations in the Engineering Reference for this coil type. Also, use Output:Diagnostics, DisplayExtraWarnings for further guidance.\n   ** Warning ** Sizing: Coil:Heating:DX:SingleSpeed PTHP 1 SPD DX HTG COIL 22: Rated air volume flow rate per watt of rated total heating capacity is out of range.\n   **   ~~~   ** Min Rated Vol Flow Per Watt=[4.027E-005], Rated Vol Flow Per Watt=[1687792004098228.000], Max Rated Vol Flow Per Watt=[6.041E-005]. See Input-Output Reference Manual for valid range.\n   ** Warning ** Coil:Heating:DX:SingleSpeed \"PTHP 1 SPD DX HTG COIL 22\" - Air volume flow rate per watt of rated total heating capacity is out of range at 1680451453328018. m3/s/W.\n   **   ~~~   **  During Warmup, Environment=MONTREAL INT'L ANN CLG .4% CONDNS DB=>MWB, at Simulation time=07/21 00:00 - 00:10\n   **   ~~~   ** Expected range for VolumeFlowPerRatedTotalCapacity=[2.684E-005--8.056E-005]\n   **   ~~~   ** Possible causes include inconsistent air flow rates in system components or\n   **   ~~~   ** inconsistent supply air fan operation modes in coil and unitary system objects.\n   ** Warning ** The Standard Ratings is calculated for Coil:Heating:DX:SingleSpeed = PTHP 1 SPD DX HTG COIL 7 but not at the AHRI test condition due to curve out of bound.\n   **   ~~~   **  Review the Standard Ratings calculations in the Engineering Reference for this coil type. Also, use Output:Diagnostics, DisplayExtraWarnings for further guidance.\n   ** Warning ** Sizing: Coil:Heating:DX:SingleSpeed PTHP 1 SPD DX HTG COIL 7: Rated air volume flow rate per watt of rated total heating capacity is out of range.\n   **   ~~~   ** Min Rated Vol Flow Per Watt=[4.027E-005], Rated Vol Flow Per Watt=[1285059096123811.750], Max Rated Vol Flow Per Watt=[6.041E-005]. See Input-Output Reference Manual for valid range.\n   ** Warning ** Coil:Heating:DX:SingleSpeed \"PTHP 1 SPD DX HTG COIL 7\" - Air volume flow rate per watt of rated total heating capacity is out of range at 1279470112697589. m3/s/W.\n   **   ~~~   **  During Warmup, Environment=MONTREAL INT'L ANN CLG .4% CONDNS DB=>MWB, at Simulation time=07/21 00:00 - 00:10\n   **   ~~~   ** Expected range for VolumeFlowPerRatedTotalCapacity=[2.684E-005--8.056E-005]\n   **   ~~~   ** Possible causes include inconsistent air flow rates in system components or\n   **   ~~~   ** inconsistent supply air fan operation modes in coil and unitary system objects.\n   ** Warning ** The Standard Ratings is calculated for Coil:Heating:DX:SingleSpeed = PTHP 1 SPD DX HTG COIL 12 but not at the AHRI test condition due to curve out of bound.\n   **   ~~~   **  Review the Standard Ratings calculations in the Engineering Reference for this coil type. Also, use Output:Diagnostics, DisplayExtraWarnings for further guidance.\n   ** Warning ** Sizing: Coil:Heating:DX:SingleSpeed PTHP 1 SPD DX HTG COIL 12: Rated air volume flow rate per watt of rated total heating capacity is out of range.\n   **   ~~~   ** Min Rated Vol Flow Per Watt=[4.027E-005], Rated Vol Flow Per Watt=[17251814189855982.000], Max Rated Vol Flow Per Watt=[6.041E-005]. See Input-Output Reference Manual for valid range.\n   ** Warning ** Coil:Heating:DX:SingleSpeed \"PTHP 1 SPD DX HTG COIL 12\" - Air volume flow rate per watt of rated total heating capacity is out of range at 17176782540439842. m3/s/W.\n   **   ~~~   **  During Warmup, Environment=MONTREAL INT'L ANN CLG .4% CONDNS DB=>MWB, at Simulation time=07/21 00:00 - 00:10\n   **   ~~~   ** Expected range for VolumeFlowPerRatedTotalCapacity=[2.684E-005--8.056E-005]\n   **   ~~~   ** Possible causes include inconsistent air flow rates in system components or\n   **   ~~~   ** inconsistent supply air fan operation modes in coil and unitary system objects.\n   ** Warning ** The Standard Ratings is calculated for Coil:Heating:DX:SingleSpeed = PTHP 1 SPD DX HTG COIL 2 but not at the AHRI test condition due to curve out of bound.\n   **   ~~~   **  Review the Standard Ratings calculations in the Engineering Reference for this coil type. Also, use Output:Diagnostics, DisplayExtraWarnings for further guidance.\n   ** Warning ** Sizing: Coil:Heating:DX:SingleSpeed PTHP 1 SPD DX HTG COIL 2: Rated air volume flow rate per watt of rated total heating capacity is out of range.\n   **   ~~~   ** Min Rated Vol Flow Per Watt=[4.027E-005], Rated Vol Flow Per Watt=[1248633623156900.750], Max Rated Vol Flow Per Watt=[6.041E-005]. See Input-Output Reference Manual for valid range.\n   ** Warning ** Coil:Heating:DX:SingleSpeed \"PTHP 1 SPD DX HTG COIL 2\" - Air volume flow rate per watt of rated total heating capacity is out of range at 1243203061522577. m3/s/W.\n   **   ~~~   **  During Warmup, Environment=MONTREAL INT'L ANN CLG .4% CONDNS DB=>MWB, at Simulation time=07/21 00:00 - 00:10\n   **   ~~~   ** Expected range for VolumeFlowPerRatedTotalCapacity=[2.684E-005--8.056E-005]\n   **   ~~~   ** Possible causes include inconsistent air flow rates in system components or\n   **   ~~~   ** inconsistent supply air fan operation modes in coil and unitary system objects.\n   ** Warning ** The Standard Ratings is calculated for Coil:Heating:DX:SingleSpeed = PTHP 1 SPD DX HTG COIL 24 but not at the AHRI test condition due to curve out of bound.\n   **   ~~~   **  Review the Standard Ratings calculations in the Engineering Reference for this coil type. Also, use Output:Diagnostics, DisplayExtraWarnings for further guidance.\n   ** Warning ** Sizing: Coil:Heating:DX:SingleSpeed PTHP 1 SPD DX HTG COIL 24: Rated air volume flow rate per watt of rated total heating capacity is out of range.\n   **   ~~~   ** Min Rated Vol Flow Per Watt=[4.027E-005], Rated Vol Flow Per Watt=[1528185329818020.250], Max Rated Vol Flow Per Watt=[6.041E-005]. See Input-Output Reference Manual for valid range.\n   ** Warning ** Coil:Heating:DX:SingleSpeed \"PTHP 1 SPD DX HTG COIL 24\" - Air volume flow rate per watt of rated total heating capacity is out of range at 1521538940942744. m3/s/W.\n   **   ~~~   **  During Warmup, Environment=MONTREAL INT'L ANN CLG .4% CONDNS DB=>MWB, at Simulation time=07/21 00:00 - 00:10\n   **   ~~~   ** Expected range for VolumeFlowPerRatedTotalCapacity=[2.684E-005--8.056E-005]\n   **   ~~~   ** Possible causes include inconsistent air flow rates in system components or\n   **   ~~~   ** inconsistent supply air fan operation modes in coil and unitary system objects.\n   ** Warning ** The Standard Ratings is calculated for Coil:Heating:DX:SingleSpeed = PTHP 1 SPD DX HTG COIL 16 but not at the AHRI test condition due to curve out of bound.\n   **   ~~~   **  Review the Standard Ratings calculations in the Engineering Reference for this coil type. Also, use Output:Diagnostics, DisplayExtraWarnings for further guidance.\n   ** Warning ** Sizing: Coil:Heating:DX:SingleSpeed PTHP 1 SPD DX HTG COIL 16: Rated air volume flow rate per watt of rated total heating capacity is out of range.\n   **   ~~~   ** Min Rated Vol Flow Per Watt=[4.027E-005], Rated Vol Flow Per Watt=[3268952950353078.500], Max Rated Vol Flow Per Watt=[6.041E-005]. See Input-Output Reference Manual for valid range.\n   ** Warning ** Coil:Heating:DX:SingleSpeed \"PTHP 1 SPD DX HTG COIL 16\" - Air volume flow rate per watt of rated total heating capacity is out of range at 3254735608974978. m3/s/W.\n   **   ~~~   **  During Warmup, Environment=MONTREAL INT'L ANN CLG .4% CONDNS DB=>MWB, at Simulation time=07/21 00:00 - 00:10\n   **   ~~~   ** Expected range for VolumeFlowPerRatedTotalCapacity=[2.684E-005--8.056E-005]\n   **   ~~~   ** Possible causes include inconsistent air flow rates in system components or\n   **   ~~~   ** inconsistent supply air fan operation modes in coil and unitary system objects.\n   ** Warning ** The Standard Ratings is calculated for Coil:Heating:DX:SingleSpeed = PTHP 1 SPD DX HTG COIL 8 but not at the AHRI test condition due to curve out of bound.\n   **   ~~~   **  Review the Standard Ratings calculations in the Engineering Reference for this coil type. Also, use Output:Diagnostics, DisplayExtraWarnings for further guidance.\n   ** Warning ** Sizing: Coil:Heating:DX:SingleSpeed PTHP 1 SPD DX HTG COIL 8: Rated air volume flow rate per watt of rated total heating capacity is out of range.\n   **   ~~~   ** Min Rated Vol Flow Per Watt=[4.027E-005], Rated Vol Flow Per Watt=[1532865033114515.000], Max Rated Vol Flow Per Watt=[6.041E-005]. See Input-Output Reference Manual for valid range.\n   ** Warning ** Coil:Heating:DX:SingleSpeed \"PTHP 1 SPD DX HTG COIL 8\" - Air volume flow rate per watt of rated total heating capacity is out of range at 1526198291257619. m3/s/W.\n   **   ~~~   **  During Warmup, Environment=MONTREAL INT'L ANN CLG .4% CONDNS DB=>MWB, at Simulation time=07/21 00:00 - 00:10\n   **   ~~~   ** Expected range for VolumeFlowPerRatedTotalCapacity=[2.684E-005--8.056E-005]\n   **   ~~~   ** Possible causes include inconsistent air flow rates in system components or\n   **   ~~~   ** inconsistent supply air fan operation modes in coil and unitary system objects.\n   ** Warning ** The Standard Ratings is calculated for Coil:Heating:DX:SingleSpeed = PTHP 1 SPD DX HTG COIL 19 but not at the AHRI test condition due to curve out of bound.\n   **   ~~~   **  Review the Standard Ratings calculations in the Engineering Reference for this coil type. Also, use Output:Diagnostics, DisplayExtraWarnings for further guidance.\n   ** Warning ** Sizing: Coil:Heating:DX:SingleSpeed PTHP 1 SPD DX HTG COIL 19: Rated air volume flow rate per watt of rated total heating capacity is out of range.\n   **   ~~~   ** Min Rated Vol Flow Per Watt=[4.027E-005], Rated Vol Flow Per Watt=[39557978887465176.000], Max Rated Vol Flow Per Watt=[6.041E-005]. See Input-Output Reference Manual for valid range.\n   ** Warning ** Coil:Heating:DX:SingleSpeed \"PTHP 1 SPD DX HTG COIL 19\" - Air volume flow rate per watt of rated total heating capacity is out of range at 39385933190077560. m3/s/W.\n   **   ~~~   **  During Warmup, Environment=MONTREAL INT'L ANN CLG .4% CONDNS DB=>MWB, at Simulation time=07/21 00:00 - 00:10\n   **   ~~~   ** Expected range for VolumeFlowPerRatedTotalCapacity=[2.684E-005--8.056E-005]\n   **   ~~~   ** Possible causes include inconsistent air flow rates in system components or\n   **   ~~~   ** inconsistent supply air fan operation modes in coil and unitary system objects.\n   ** Warning ** The Standard Ratings is calculated for Coil:Heating:DX:SingleSpeed = PTHP 1 SPD DX HTG COIL 13 but not at the AHRI test condition due to curve out of bound.\n   **   ~~~   **  Review the Standard Ratings calculations in the Engineering Reference for this coil type. Also, use Output:Diagnostics, DisplayExtraWarnings for further guidance.\n   ** Warning ** Sizing: Coil:Heating:DX:SingleSpeed PTHP 1 SPD DX HTG COIL 13: Rated air volume flow rate per watt of rated total heating capacity is out of range.\n   **   ~~~   ** Min Rated Vol Flow Per Watt=[4.027E-005], Rated Vol Flow Per Watt=[21400064613113812.000], Max Rated Vol Flow Per Watt=[6.041E-005]. See Input-Output Reference Manual for valid range.\n   ** Warning ** Coil:Heating:DX:SingleSpeed \"PTHP 1 SPD DX HTG COIL 13\" - Air volume flow rate per watt of rated total heating capacity is out of range at 21306991378736060. m3/s/W.\n   **   ~~~   **  During Warmup, Environment=MONTREAL INT'L ANN CLG .4% CONDNS DB=>MWB, at Simulation time=07/21 00:00 - 00:10\n   **   ~~~   ** Expected range for VolumeFlowPerRatedTotalCapacity=[2.684E-005--8.056E-005]\n   **   ~~~   ** Possible causes include inconsistent air flow rates in system components or\n   **   ~~~   ** inconsistent supply air fan operation modes in coil and unitary system objects.\n   ** Warning ** The Standard Ratings is calculated for Coil:Heating:DX:SingleSpeed = PTHP 1 SPD DX HTG COIL 29 but not at the AHRI test condition due to curve out of bound.\n   **   ~~~   **  Review the Standard Ratings calculations in the Engineering Reference for this coil type. Also, use Output:Diagnostics, DisplayExtraWarnings for further guidance.\n   ** Warning ** Sizing: Coil:Heating:DX:SingleSpeed PTHP 1 SPD DX HTG COIL 29: Rated air volume flow rate per watt of rated total heating capacity is out of range.\n   **   ~~~   ** Min Rated Vol Flow Per Watt=[4.027E-005], Rated Vol Flow Per Watt=[18980285154322148.000], Max Rated Vol Flow Per Watt=[6.041E-005]. See Input-Output Reference Manual for valid range.\n   ** Warning ** Coil:Heating:DX:SingleSpeed \"PTHP 1 SPD DX HTG COIL 29\" - Air volume flow rate per watt of rated total heating capacity is out of range at 18897736033061912. m3/s/W.\n   **   ~~~   **  During Warmup, Environment=MONTREAL INT'L ANN CLG .4% CONDNS DB=>MWB, at Simulation time=07/21 00:00 - 00:10\n   **   ~~~   ** Expected range for VolumeFlowPerRatedTotalCapacity=[2.684E-005--8.056E-005]\n   **   ~~~   ** Possible causes include inconsistent air flow rates in system components or\n   **   ~~~   ** inconsistent supply air fan operation modes in coil and unitary system objects.\n   ** Warning ** The Standard Ratings is calculated for Coil:Heating:DX:SingleSpeed = PTHP 1 SPD DX HTG COIL 14 but not at the AHRI test condition due to curve out of bound.\n   **   ~~~   **  Review the Standard Ratings calculations in the Engineering Reference for this coil type. Also, use Output:Diagnostics, DisplayExtraWarnings for further guidance.\n   ** Warning ** Sizing: Coil:Heating:DX:SingleSpeed PTHP 1 SPD DX HTG COIL 14: Rated air volume flow rate per watt of rated total heating capacity is out of range.\n   **   ~~~   ** Min Rated Vol Flow Per Watt=[4.027E-005], Rated Vol Flow Per Watt=[13813425289179970.000], Max Rated Vol Flow Per Watt=[6.041E-005]. See Input-Output Reference Manual for valid range.\n   ** Warning ** Coil:Heating:DX:SingleSpeed \"PTHP 1 SPD DX HTG COIL 14\" - Air volume flow rate per watt of rated total heating capacity is out of range at 13753347892557922. m3/s/W.\n   **   ~~~   **  During Warmup, Environment=MONTREAL INT'L ANN CLG .4% CONDNS DB=>MWB, at Simulation time=07/21 00:00 - 00:10\n   **   ~~~   ** Expected range for VolumeFlowPerRatedTotalCapacity=[2.684E-005--8.056E-005]\n   **   ~~~   ** Possible causes include inconsistent air flow rates in system components or\n   **   ~~~   ** inconsistent supply air fan operation modes in coil and unitary system objects.\n   ** Warning ** The Standard Ratings is calculated for Coil:Heating:DX:SingleSpeed = PTHP 1 SPD DX HTG COIL 17 but not at the AHRI test condition due to curve out of bound.\n   **   ~~~   **  Review the Standard Ratings calculations in the Engineering Reference for this coil type. Also, use Output:Diagnostics, DisplayExtraWarnings for further guidance.\n   ** Warning ** Sizing: Coil:Heating:DX:SingleSpeed PTHP 1 SPD DX HTG COIL 17: Rated air volume flow rate per watt of rated total heating capacity is out of range.\n   **   ~~~   ** Min Rated Vol Flow Per Watt=[4.027E-005], Rated Vol Flow Per Watt=[18233892521086788.000], Max Rated Vol Flow Per Watt=[6.041E-005]. See Input-Output Reference Manual for valid range.\n   ** Warning ** Coil:Heating:DX:SingleSpeed \"PTHP 1 SPD DX HTG COIL 17\" - Air volume flow rate per watt of rated total heating capacity is out of range at 18154589613225756. m3/s/W.\n   **   ~~~   **  During Warmup, Environment=MONTREAL INT'L ANN CLG .4% CONDNS DB=>MWB, at Simulation time=07/21 00:00 - 00:10\n   **   ~~~   ** Expected range for VolumeFlowPerRatedTotalCapacity=[2.684E-005--8.056E-005]\n   **   ~~~   ** Possible causes include inconsistent air flow rates in system components or\n   **   ~~~   ** inconsistent supply air fan operation modes in coil and unitary system objects.\n   ** Warning ** The Standard Ratings is calculated for Coil:Heating:DX:SingleSpeed = PTHP 1 SPD DX HTG COIL 20 but not at the AHRI test condition due to curve out of bound.\n   **   ~~~   **  Review the Standard Ratings calculations in the Engineering Reference for this coil type. Also, use Output:Diagnostics, DisplayExtraWarnings for further guidance.\n   ** Warning ** Sizing: Coil:Heating:DX:SingleSpeed PTHP 1 SPD DX HTG COIL 20: Rated air volume flow rate per watt of rated total heating capacity is out of range.\n   **   ~~~   ** Min Rated Vol Flow Per Watt=[4.027E-005], Rated Vol Flow Per Watt=[16793389812656838.000], Max Rated Vol Flow Per Watt=[6.041E-005]. See Input-Output Reference Manual for valid range.\n   ** Warning ** Coil:Heating:DX:SingleSpeed \"PTHP 1 SPD DX HTG COIL 20\" - Air volume flow rate per watt of rated total heating capacity is out of range at 16720351944113554. m3/s/W.\n   **   ~~~   **  During Warmup, Environment=MONTREAL INT'L ANN CLG .4% CONDNS DB=>MWB, at Simulation time=07/21 00:00 - 00:10\n   **   ~~~   ** Expected range for VolumeFlowPerRatedTotalCapacity=[2.684E-005--8.056E-005]\n   **   ~~~   ** Possible causes include inconsistent air flow rates in system components or\n   **   ~~~   ** inconsistent supply air fan operation modes in coil and unitary system objects.\n   ** Warning ** The Standard Ratings is calculated for Coil:Heating:DX:SingleSpeed = PTHP 1 SPD DX HTG COIL 4 but not at the AHRI test condition due to curve out of bound.\n   **   ~~~   **  Review the Standard Ratings calculations in the Engineering Reference for this coil type. Also, use Output:Diagnostics, DisplayExtraWarnings for further guidance.\n   ** Warning ** Sizing: Coil:Heating:DX:SingleSpeed PTHP 1 SPD DX HTG COIL 4: Rated air volume flow rate per watt of rated total heating capacity is out of range.\n   **   ~~~   ** Min Rated Vol Flow Per Watt=[4.027E-005], Rated Vol Flow Per Watt=[14339887904612762.000], Max Rated Vol Flow Per Watt=[6.041E-005]. See Input-Output Reference Manual for valid range.\n   ** Warning ** Coil:Heating:DX:SingleSpeed \"PTHP 1 SPD DX HTG COIL 4\" - Air volume flow rate per watt of rated total heating capacity is out of range at 14277520814978890. m3/s/W.\n   **   ~~~   **  During Warmup, Environment=MONTREAL INT'L ANN CLG .4% CONDNS DB=>MWB, at Simulation time=07/21 00:00 - 00:10\n   **   ~~~   ** Expected range for VolumeFlowPerRatedTotalCapacity=[2.684E-005--8.056E-005]\n   **   ~~~   ** Possible causes include inconsistent air flow rates in system components or\n   **   ~~~   ** inconsistent supply air fan operation modes in coil and unitary system objects.\n   ** Warning ** The Standard Ratings is calculated for Coil:Heating:DX:SingleSpeed = PTHP 1 SPD DX HTG COIL 15 but not at the AHRI test condition due to curve out of bound.\n   **   ~~~   **  Review the Standard Ratings calculations in the Engineering Reference for this coil type. Also, use Output:Diagnostics, DisplayExtraWarnings for further guidance.\n   ** Warning ** Sizing: Coil:Heating:DX:SingleSpeed PTHP 1 SPD DX HTG COIL 15: Rated air volume flow rate per watt of rated total heating capacity is out of range.\n   **   ~~~   ** Min Rated Vol Flow Per Watt=[4.027E-005], Rated Vol Flow Per Watt=[13934162037578468.000], Max Rated Vol Flow Per Watt=[6.041E-005]. See Input-Output Reference Manual for valid range.\n   ** Warning ** Coil:Heating:DX:SingleSpeed \"PTHP 1 SPD DX HTG COIL 15\" - Air volume flow rate per watt of rated total heating capacity is out of range at 13873559532276386. m3/s/W.\n   **   ~~~   **  During Warmup, Environment=MONTREAL INT'L ANN CLG .4% CONDNS DB=>MWB, at Simulation time=07/21 00:00 - 00:10\n   **   ~~~   ** Expected range for VolumeFlowPerRatedTotalCapacity=[2.684E-005--8.056E-005]\n   **   ~~~   ** Possible causes include inconsistent air flow rates in system components or\n   **   ~~~   ** inconsistent supply air fan operation modes in coil and unitary system objects.\n   ** Warning ** The Standard Ratings is calculated for Coil:Heating:DX:SingleSpeed = PTHP 1 SPD DX HTG COIL 9 but not at the AHRI test condition due to curve out of bound.\n   **   ~~~   **  Review the Standard Ratings calculations in the Engineering Reference for this coil type. Also, use Output:Diagnostics, DisplayExtraWarnings for further guidance.\n   ** Warning ** Sizing: Coil:Heating:DX:SingleSpeed PTHP 1 SPD DX HTG COIL 9: Rated air volume flow rate per watt of rated total heating capacity is out of range.\n   **   ~~~   ** Min Rated Vol Flow Per Watt=[4.027E-005], Rated Vol Flow Per Watt=[18142958388277412.000], Max Rated Vol Flow Per Watt=[6.041E-005]. See Input-Output Reference Manual for valid range.\n   ** Warning ** Coil:Heating:DX:SingleSpeed \"PTHP 1 SPD DX HTG COIL 9\" - Air volume flow rate per watt of rated total heating capacity is out of range at 18064050971458532. m3/s/W.\n   **   ~~~   **  During Warmup, Environment=MONTREAL INT'L ANN CLG .4% CONDNS DB=>MWB, at Simulation time=07/21 00:00 - 00:10\n   **   ~~~   ** Expected range for VolumeFlowPerRatedTotalCapacity=[2.684E-005--8.056E-005]\n   **   ~~~   ** Possible causes include inconsistent air flow rates in system components or\n   **   ~~~   ** inconsistent supply air fan operation modes in coil and unitary system objects.\n   ** Warning ** The Standard Ratings is calculated for Coil:Heating:DX:SingleSpeed = PTHP 1 SPD DX HTG COIL 11 but not at the AHRI test condition due to curve out of bound.\n   **   ~~~   **  Review the Standard Ratings calculations in the Engineering Reference for this coil type. Also, use Output:Diagnostics, DisplayExtraWarnings for further guidance.\n   ** Warning ** Sizing: Coil:Heating:DX:SingleSpeed PTHP 1 SPD DX HTG COIL 11: Rated air volume flow rate per watt of rated total heating capacity is out of range.\n   **   ~~~   ** Min Rated Vol Flow Per Watt=[4.027E-005], Rated Vol Flow Per Watt=[17949999663500704.000], Max Rated Vol Flow Per Watt=[6.041E-005]. See Input-Output Reference Manual for valid range.\n   ** Warning ** Coil:Heating:DX:SingleSpeed \"PTHP 1 SPD DX HTG COIL 11\" - Air volume flow rate per watt of rated total heating capacity is out of range at 17871931463429112. m3/s/W.\n   **   ~~~   **  During Warmup, Environment=MONTREAL INT'L ANN CLG .4% CONDNS DB=>MWB, at Simulation time=07/21 00:00 - 00:10\n   **   ~~~   ** Expected range for VolumeFlowPerRatedTotalCapacity=[2.684E-005--8.056E-005]\n   **   ~~~   ** Possible causes include inconsistent air flow rates in system components or\n   **   ~~~   ** inconsistent supply air fan operation modes in coil and unitary system objects.\n   ** Warning ** The Standard Ratings is calculated for Coil:Heating:DX:SingleSpeed = PTHP 1 SPD DX HTG COIL 18 but not at the AHRI test condition due to curve out of bound.\n   **   ~~~   **  Review the Standard Ratings calculations in the Engineering Reference for this coil type. Also, use Output:Diagnostics, DisplayExtraWarnings for further guidance.\n   ** Warning ** Sizing: Coil:Heating:DX:SingleSpeed PTHP 1 SPD DX HTG COIL 18: Rated air volume flow rate per watt of rated total heating capacity is out of range.\n   **   ~~~   ** Min Rated Vol Flow Per Watt=[4.027E-005], Rated Vol Flow Per Watt=[2226964239129580.250], Max Rated Vol Flow Per Watt=[6.041E-005]. See Input-Output Reference Manual for valid range.\n   ** Warning ** Coil:Heating:DX:SingleSpeed \"PTHP 1 SPD DX HTG COIL 18\" - Air volume flow rate per watt of rated total heating capacity is out of range at 2217278718626415. m3/s/W.\n   **   ~~~   **  During Warmup, Environment=MONTREAL INT'L ANN CLG .4% CONDNS DB=>MWB, at Simulation time=07/21 00:00 - 00:10\n   **   ~~~   ** Expected range for VolumeFlowPerRatedTotalCapacity=[2.684E-005--8.056E-005]\n   **   ~~~   ** Possible causes include inconsistent air flow rates in system components or\n   **   ~~~   ** inconsistent supply air fan operation modes in coil and unitary system objects.\n   ** Warning ** The Standard Ratings is calculated for Coil:Heating:DX:SingleSpeed = PTHP 1 SPD DX HTG COIL 5 but not at the AHRI test condition due to curve out of bound.\n   **   ~~~   **  Review the Standard Ratings calculations in the Engineering Reference for this coil type. Also, use Output:Diagnostics, DisplayExtraWarnings for further guidance.\n   ** Warning ** Sizing: Coil:Heating:DX:SingleSpeed PTHP 1 SPD DX HTG COIL 5: Rated air volume flow rate per watt of rated total heating capacity is out of range.\n   **   ~~~   ** Min Rated Vol Flow Per Watt=[4.027E-005], Rated Vol Flow Per Watt=[1726135214459783.250], Max Rated Vol Flow Per Watt=[6.041E-005]. See Input-Output Reference Manual for valid range.\n   ** Warning ** Coil:Heating:DX:SingleSpeed \"PTHP 1 SPD DX HTG COIL 5\" - Air volume flow rate per watt of rated total heating capacity is out of range at 1718627901267623. m3/s/W.\n   **   ~~~   **  During Warmup, Environment=MONTREAL INT'L ANN CLG .4% CONDNS DB=>MWB, at Simulation time=07/21 00:00 - 00:10\n   **   ~~~   ** Expected range for VolumeFlowPerRatedTotalCapacity=[2.684E-005--8.056E-005]\n   **   ~~~   ** Possible causes include inconsistent air flow rates in system components or\n   **   ~~~   ** inconsistent supply air fan operation modes in coil and unitary system objects.\n   ** Warning ** The Standard Ratings is calculated for Coil:Heating:DX:SingleSpeed = PTHP 1 SPD DX HTG COIL 6 but not at the AHRI test condition due to curve out of bound.\n   **   ~~~   **  Review the Standard Ratings calculations in the Engineering Reference for this coil type. Also, use Output:Diagnostics, DisplayExtraWarnings for further guidance.\n   ** Warning ** Sizing: Coil:Heating:DX:SingleSpeed PTHP 1 SPD DX HTG COIL 6: Rated air volume flow rate per watt of rated total heating capacity is out of range.\n   **   ~~~   ** Min Rated Vol Flow Per Watt=[4.027E-005], Rated Vol Flow Per Watt=[2162221463953999.750], Max Rated Vol Flow Per Watt=[6.041E-005]. See Input-Output Reference Manual for valid range.\n   ** Warning ** Coil:Heating:DX:SingleSpeed \"PTHP 1 SPD DX HTG COIL 6\" - Air volume flow rate per watt of rated total heating capacity is out of range at 2152817522950575. m3/s/W.\n   **   ~~~   **  During Warmup, Environment=MONTREAL INT'L ANN CLG .4% CONDNS DB=>MWB, at Simulation time=07/21 00:00 - 00:10\n   **   ~~~   ** Expected range for VolumeFlowPerRatedTotalCapacity=[2.684E-005--8.056E-005]\n   **   ~~~   ** Possible causes include inconsistent air flow rates in system components or\n   **   ~~~   ** inconsistent supply air fan operation modes in coil and unitary system objects.\n   ** Warning ** The Standard Ratings is calculated for Coil:Heating:DX:SingleSpeed = PTHP 1 SPD DX HTG COIL 31 but not at the AHRI test condition due to curve out of bound.\n   **   ~~~   **  Review the Standard Ratings calculations in the Engineering Reference for this coil type. Also, use Output:Diagnostics, DisplayExtraWarnings for further guidance.\n   ** Warning ** Sizing: Coil:Heating:DX:SingleSpeed PTHP 1 SPD DX HTG COIL 31: Rated air volume flow rate per watt of rated total heating capacity is out of range.\n   **   ~~~   ** Min Rated Vol Flow Per Watt=[4.027E-005], Rated Vol Flow Per Watt=[1848634417271212.250], Max Rated Vol Flow Per Watt=[6.041E-005]. See Input-Output Reference Manual for valid range.\n   ** Warning ** Coil:Heating:DX:SingleSpeed \"PTHP 1 SPD DX HTG COIL 31\" - Air volume flow rate per watt of rated total heating capacity is out of range at 1840594330126240. m3/s/W.\n   **   ~~~   **  During Warmup, Environment=MONTREAL INT'L ANN CLG .4% CONDNS DB=>MWB, at Simulation time=07/21 00:00 - 00:10\n   **   ~~~   ** Expected range for VolumeFlowPerRatedTotalCapacity=[2.684E-005--8.056E-005]\n   **   ~~~   ** Possible causes include inconsistent air flow rates in system components or\n   **   ~~~   ** inconsistent supply air fan operation modes in coil and unitary system objects.\n   ** Warning ** The Standard Ratings is calculated for Coil:Heating:DX:SingleSpeed = PTHP 1 SPD DX HTG COIL 25 but not at the AHRI test condition due to curve out of bound.\n   **   ~~~   **  Review the Standard Ratings calculations in the Engineering Reference for this coil type. Also, use Output:Diagnostics, DisplayExtraWarnings for further guidance.\n   ** Warning ** Sizing: Coil:Heating:DX:SingleSpeed PTHP 1 SPD DX HTG COIL 25: Rated air volume flow rate per watt of rated total heating capacity is out of range.\n   **   ~~~   ** Min Rated Vol Flow Per Watt=[4.027E-005], Rated Vol Flow Per Watt=[2207821717103899.500], Max Rated Vol Flow Per Watt=[6.041E-005]. See Input-Output Reference Manual for valid range.\n   ** Warning ** Coil:Heating:DX:SingleSpeed \"PTHP 1 SPD DX HTG COIL 25\" - Air volume flow rate per watt of rated total heating capacity is out of range at 2198219451323151. m3/s/W.\n   **   ~~~   **  During Warmup, Environment=MONTREAL INT'L ANN CLG .4% CONDNS DB=>MWB, at Simulation time=07/21 00:00 - 00:10\n   **   ~~~   ** Expected range for VolumeFlowPerRatedTotalCapacity=[2.684E-005--8.056E-005]\n   **   ~~~   ** Possible causes include inconsistent air flow rates in system components or\n   **   ~~~   ** inconsistent supply air fan operation modes in coil and unitary system objects.\n   ** Warning ** The Standard Ratings is calculated for Coil:Heating:DX:SingleSpeed = PTHP 1 SPD DX HTG COIL 23 but not at the AHRI test condition due to curve out of bound.\n   **   ~~~   **  Review the Standard Ratings calculations in the Engineering Reference for this coil type. Also, use Output:Diagnostics, DisplayExtraWarnings for further guidance.\n   ** Warning ** Sizing: Coil:Heating:DX:SingleSpeed PTHP 1 SPD DX HTG COIL 23: Rated air volume flow rate per watt of rated total heating capacity is out of range.\n   **   ~~~   ** Min Rated Vol Flow Per Watt=[4.027E-005], Rated Vol Flow Per Watt=[1802000555421841.500], Max Rated Vol Flow Per Watt=[6.041E-005]. See Input-Output Reference Manual for valid range.\n   ** Warning ** Coil:Heating:DX:SingleSpeed \"PTHP 1 SPD DX HTG COIL 23\" - Air volume flow rate per watt of rated total heating capacity is out of range at 1794163288428692. m3/s/W.\n   **   ~~~   **  During Warmup, Environment=MONTREAL INT'L ANN CLG .4% CONDNS DB=>MWB, at Simulation time=07/21 00:00 - 00:10\n   **   ~~~   ** Expected range for VolumeFlowPerRatedTotalCapacity=[2.684E-005--8.056E-005]\n   **   ~~~   ** Possible causes include inconsistent air flow rates in system components or\n   **   ~~~   ** inconsistent supply air fan operation modes in coil and unitary system objects.\n   ** Warning ** The Standard Ratings is calculated for Coil:Heating:DX:SingleSpeed = PTHP 1 SPD DX HTG COIL 21 but not at the AHRI test condition due to curve out of bound.\n   **   ~~~   **  Review the Standard Ratings calculations in the Engineering Reference for this coil type. Also, use Output:Diagnostics, DisplayExtraWarnings for further guidance.\n   ** Warning ** Sizing: Coil:Heating:DX:SingleSpeed PTHP 1 SPD DX HTG COIL 21: Rated air volume flow rate per watt of rated total heating capacity is out of range.\n   **   ~~~   ** Min Rated Vol Flow Per Watt=[4.027E-005], Rated Vol Flow Per Watt=[1761948775335305.500], Max Rated Vol Flow Per Watt=[6.041E-005]. See Input-Output Reference Manual for valid range.\n   ** Warning ** Coil:Heating:DX:SingleSpeed \"PTHP 1 SPD DX HTG COIL 21\" - Air volume flow rate per watt of rated total heating capacity is out of range at 1754285701681412. m3/s/W.\n   **   ~~~   **  During Warmup, Environment=MONTREAL INT'L ANN CLG .4% CONDNS DB=>MWB, at Simulation time=07/21 00:00 - 00:10\n   **   ~~~   ** Expected range for VolumeFlowPerRatedTotalCapacity=[2.684E-005--8.056E-005]\n   **   ~~~   ** Possible causes include inconsistent air flow rates in system components or\n   **   ~~~   ** inconsistent supply air fan operation modes in coil and unitary system objects.\n   ** Warning ** The Standard Ratings is calculated for Coil:Heating:DX:SingleSpeed = PTHP 1 SPD DX HTG COIL 10 but not at the AHRI test condition due to curve out of bound.\n   **   ~~~   **  Review the Standard Ratings calculations in the Engineering Reference for this coil type. Also, use Output:Diagnostics, DisplayExtraWarnings for further guidance.\n   ** Warning ** Sizing: Coil:Heating:DX:SingleSpeed PTHP 1 SPD DX HTG COIL 10: Rated air volume flow rate per watt of rated total heating capacity is out of range.\n   **   ~~~   ** Min Rated Vol Flow Per Watt=[4.027E-005], Rated Vol Flow Per Watt=[2841369843113129.500], Max Rated Vol Flow Per Watt=[6.041E-005]. See Input-Output Reference Manual for valid range.\n   ** Warning ** Coil:Heating:DX:SingleSpeed \"PTHP 1 SPD DX HTG COIL 10\" - Air volume flow rate per watt of rated total heating capacity is out of range at 2829012147650851. m3/s/W.\n   **   ~~~   **  During Warmup, Environment=MONTREAL INT'L ANN CLG .4% CONDNS DB=>MWB, at Simulation time=07/21 00:00 - 00:10\n   **   ~~~   ** Expected range for VolumeFlowPerRatedTotalCapacity=[2.684E-005--8.056E-005]\n   **   ~~~   ** Possible causes include inconsistent air flow rates in system components or\n   **   ~~~   ** inconsistent supply air fan operation modes in coil and unitary system objects.\n   ** Warning ** The Standard Ratings is calculated for Coil:Heating:DX:SingleSpeed = PTHP 1 SPD DX HTG COIL 1 but not at the AHRI test condition due to curve out of bound.\n   **   ~~~   **  Review the Standard Ratings calculations in the Engineering Reference for this coil type. Also, use Output:Diagnostics, DisplayExtraWarnings for further guidance.\n   ** Warning ** Sizing: Coil:Heating:DX:SingleSpeed PTHP 1 SPD DX HTG COIL 1: Rated air volume flow rate per watt of rated total heating capacity is out of range.\n   **   ~~~   ** Min Rated Vol Flow Per Watt=[4.027E-005], Rated Vol Flow Per Watt=[2216259947469870.500], Max Rated Vol Flow Per Watt=[6.041E-005]. See Input-Output Reference Manual for valid range.\n   ** Warning ** Coil:Heating:DX:SingleSpeed \"PTHP 1 SPD DX HTG COIL 1\" - Air volume flow rate per watt of rated total heating capacity is out of range at 2206620982108687. m3/s/W.\n   **   ~~~   **  During Warmup, Environment=MONTREAL INT'L ANN CLG .4% CONDNS DB=>MWB, at Simulation time=07/21 00:00 - 00:10\n   **   ~~~   ** Expected range for VolumeFlowPerRatedTotalCapacity=[2.684E-005--8.056E-005]\n   **   ~~~   ** Possible causes include inconsistent air flow rates in system components or\n   **   ~~~   ** inconsistent supply air fan operation modes in coil and unitary system objects.\n   ** Warning ** The Standard Ratings is calculated for Coil:Heating:DX:SingleSpeed = PTHP 1 SPD DX HTG COIL 27 but not at the AHRI test condition due to curve out of bound.\n   **   ~~~   **  Review the Standard Ratings calculations in the Engineering Reference for this coil type. Also, use Output:Diagnostics, DisplayExtraWarnings for further guidance.\n   ** Warning ** Sizing: Coil:Heating:DX:SingleSpeed PTHP 1 SPD DX HTG COIL 27: Rated air volume flow rate per watt of rated total heating capacity is out of range.\n   **   ~~~   ** Min Rated Vol Flow Per Watt=[4.027E-005], Rated Vol Flow Per Watt=[6993545185934349.000], Max Rated Vol Flow Per Watt=[6.041E-005]. See Input-Output Reference Manual for valid range.\n   ** Warning ** Coil:Heating:DX:SingleSpeed \"PTHP 1 SPD DX HTG COIL 27\" - Air volume flow rate per watt of rated total heating capacity is out of range at 6963128835236838. m3/s/W.\n   **   ~~~   **  During Warmup, Environment=MONTREAL INT'L ANN CLG .4% CONDNS DB=>MWB, at Simulation time=07/21 00:00 - 00:10\n   **   ~~~   ** Expected range for VolumeFlowPerRatedTotalCapacity=[2.684E-005--8.056E-005]\n   **   ~~~   ** Possible causes include inconsistent air flow rates in system components or\n   **   ~~~   ** inconsistent supply air fan operation modes in coil and unitary system objects.\n   ** Warning ** The Standard Ratings is calculated for Coil:Heating:DX:SingleSpeed = PTHP 1 SPD DX HTG COIL 26 but not at the AHRI test condition due to curve out of bound.\n   **   ~~~   **  Review the Standard Ratings calculations in the Engineering Reference for this coil type. Also, use Output:Diagnostics, DisplayExtraWarnings for further guidance.\n   ** Warning ** Sizing: Coil:Heating:DX:SingleSpeed PTHP 1 SPD DX HTG COIL 26: Rated air volume flow rate per watt of rated total heating capacity is out of range.\n   **   ~~~   ** Min Rated Vol Flow Per Watt=[4.027E-005], Rated Vol Flow Per Watt=[14061748073610926.000], Max Rated Vol Flow Per Watt=[6.041E-005]. See Input-Output Reference Manual for valid range.\n   ** Warning ** Coil:Heating:DX:SingleSpeed \"PTHP 1 SPD DX HTG COIL 26\" - Air volume flow rate per watt of rated total heating capacity is out of range at 14000590670683548. m3/s/W.\n   **   ~~~   **  During Warmup, Environment=MONTREAL INT'L ANN CLG .4% CONDNS DB=>MWB, at Simulation time=07/21 00:00 - 00:10\n   **   ~~~   ** Expected range for VolumeFlowPerRatedTotalCapacity=[2.684E-005--8.056E-005]\n   **   ~~~   ** Possible causes include inconsistent air flow rates in system components or\n   **   ~~~   ** inconsistent supply air fan operation modes in coil and unitary system objects.\n   ** Warning ** The Standard Ratings is calculated for Coil:Heating:DX:SingleSpeed = PTHP 1 SPD DX HTG COIL 30 but not at the AHRI test condition due to curve out of bound.\n   **   ~~~   **  Review the Standard Ratings calculations in the Engineering Reference for this coil type. Also, use Output:Diagnostics, DisplayExtraWarnings for further guidance.\n   ** Warning ** Sizing: Coil:Heating:DX:SingleSpeed PTHP 1 SPD DX HTG COIL 30: Rated air volume flow rate per watt of rated total heating capacity is out of range.\n   **   ~~~   ** Min Rated Vol Flow Per Watt=[4.027E-005], Rated Vol Flow Per Watt=[1832055050836721.750], Max Rated Vol Flow Per Watt=[6.041E-005]. See Input-Output Reference Manual for valid range.\n   ** Warning ** Coil:Heating:DX:SingleSpeed \"PTHP 1 SPD DX HTG COIL 30\" - Air volume flow rate per watt of rated total heating capacity is out of range at 1824087070729083. m3/s/W.\n   **   ~~~   **  During Warmup, Environment=MONTREAL INT'L ANN CLG .4% CONDNS DB=>MWB, at Simulation time=07/21 00:00 - 00:10\n   **   ~~~   ** Expected range for VolumeFlowPerRatedTotalCapacity=[2.684E-005--8.056E-005]\n   **   ~~~   ** Possible causes include inconsistent air flow rates in system components or\n   **   ~~~   ** inconsistent supply air fan operation modes in coil and unitary system objects.\n   ** Warning ** The Standard Ratings is calculated for Coil:Heating:DX:SingleSpeed = PTHP 1 SPD DX HTG COIL 32 but not at the AHRI test condition due to curve out of bound.\n   **   ~~~   **  Review the Standard Ratings calculations in the Engineering Reference for this coil type. Also, use Output:Diagnostics, DisplayExtraWarnings for further guidance.\n   ** Warning ** Sizing: Coil:Heating:DX:SingleSpeed PTHP 1 SPD DX HTG COIL 32: Rated air volume flow rate per watt of rated total heating capacity is out of range.\n   **   ~~~   ** Min Rated Vol Flow Per Watt=[4.027E-005], Rated Vol Flow Per Watt=[1886191631815040.500], Max Rated Vol Flow Per Watt=[6.041E-005]. See Input-Output Reference Manual for valid range.\n   ** Warning ** Coil:Heating:DX:SingleSpeed \"PTHP 1 SPD DX HTG COIL 32\" - Air volume flow rate per watt of rated total heating capacity is out of range at 1877988200703823. m3/s/W.\n   **   ~~~   **  During Warmup, Environment=MONTREAL INT'L ANN CLG .4% CONDNS DB=>MWB, at Simulation time=07/21 00:00 - 00:10\n   **   ~~~   ** Expected range for VolumeFlowPerRatedTotalCapacity=[2.684E-005--8.056E-005]\n   **   ~~~   ** Possible causes include inconsistent air flow rates in system components or\n   **   ~~~   ** inconsistent supply air fan operation modes in coil and unitary system objects.\n   ** Warning ** The Standard Ratings is calculated for Coil:Heating:DX:SingleSpeed = PTHP 1 SPD DX HTG COIL 39 but not at the AHRI test condition due to curve out of bound.\n   **   ~~~   **  Review the Standard Ratings calculations in the Engineering Reference for this coil type. Also, use Output:Diagnostics, DisplayExtraWarnings for further guidance.\n   ** Warning ** Sizing: Coil:Heating:DX:SingleSpeed PTHP 1 SPD DX HTG COIL 39: Rated air volume flow rate per watt of rated total heating capacity is out of range.\n   **   ~~~   ** Min Rated Vol Flow Per Watt=[4.027E-005], Rated Vol Flow Per Watt=[1440174541581395.500], Max Rated Vol Flow Per Watt=[6.041E-005]. See Input-Output Reference Manual for valid range.\n   ** Warning ** Coil:Heating:DX:SingleSpeed \"PTHP 1 SPD DX HTG COIL 39\" - Air volume flow rate per watt of rated total heating capacity is out of range at 1433910929528031. m3/s/W.\n   **   ~~~   **  During Warmup, Environment=MONTREAL INT'L ANN CLG .4% CONDNS DB=>MWB, at Simulation time=07/21 00:00 - 00:10\n   **   ~~~   ** Expected range for VolumeFlowPerRatedTotalCapacity=[2.684E-005--8.056E-005]\n   **   ~~~   ** Possible causes include inconsistent air flow rates in system components or\n   **   ~~~   ** inconsistent supply air fan operation modes in coil and unitary system objects.\n   ** Warning ** Water heater = 600 GAL WATER HEATER - 600 KBTU/HR:  Recovery Efficiency and Energy Factor could not be calculated during the test for standard ratings\n   **   ~~~   ** Setpoint was never recovered and/or heater never turned on\n   ** Warning ** Output:Meter: invalid Key Name=\"DISTRICTCOOLING:FACILITY\" - not found.\n   ** 
[...]
                  "name" : "surface_258_c_tbd",
                  "units" : "m^2",
                  "value" : 4.44050889029264
               },
               {
                  "name" : "surface_259_c_tbd",
                  "units" : "m^2",
                  "value" : 15.463338648027577
               },
               {
                  "name" : "surface_260_c_tbd",
                  "units" : "m^2",
                  "value" : 17.16159783131156
               },
               {
                  "name" : "surface_261_c_tbd",
                  "units" : "m^2",
                  "value" : 19.791175468586538
               },
               {
                  "name" : "surface_262_c_tbd",
                  "units" : "m^2",
                  "value" : 74.15808488019357
               },
               {
                  "name" : "surface_264_c_tbd",
                  "units" : "m^2",
                  "value" : 13.938961835176238
               },
               {
                  "name" : "surface_265_c_tbd",
                  "units" : "m^2",
                  "value" : 15.546160093338564
               },
               {
                  "name" : "surface_266_c_tbd",
                  "units" : "m^2",
                  "value" : 13.67070797732864
               },
               {
                  "name" : "surface_267_c_tbd",
                  "units" : "m^2",
                  "value" : 15.463338648027539
               },
               {
                  "name" : "surface_268_c_tbd",
                  "units" : "m^2",
                  "value" : 47.016274159944771
               },
               {
                  "name" : "surface_270_c_tbd",
                  "units" : "m^2",
                  "value" : 16.43304026889566
               },
               {
                  "name" : "surface_271_c_tbd",
                  "units" : "m^2",
                  "value" : 15.283164038742257
               },
               {
                  "name" : "surface_272_c_tbd",
                  "units" : "m^2",
                  "value" : 4.2882965216902695
               },
               {
                  "name" : "surface_273_c_tbd",
                  "units" : "m^2",
                  "value" : 16.382024715324409
               },
               {
                  "name" : "surface_274_c_tbd",
                  "units" : "m^2",
                  "value" : 19.678729197278731
               },
               {
                  "name" : "surface_275_c_tbd",
                  "units" : "m^2",
                  "value" : 70.732950425029841
               },
               {
                  "name" : "surface_277_c_tbd",
                  "units" : "m^2",
                  "value" : 17.161597831311497
               },
               {
                  "name" : "surface_278_c_tbd",
                  "units" : "m^2",
                  "value" : 19.678729197278688
               },
               {
                  "name" : "surface_279_c_tbd",
                  "units" : "m^2",
                  "value" : 17.161966212751061
               },
               {
                  "name" : "surface_280_c_tbd",
                  "units" : "m^2",
                  "value" : 19.791175468586538
               },
               {
                  "name" : "surface_281_c_tbd",
                  "units" : "m^2",
                  "value" : 74.399119673343264
               },
               {
                  "name" : "surface_283_c_tbd",
                  "units" : "m^2",
                  "value" : 13.477785009453909
               },
               {
                  "name" : "surface_284_c_tbd",
                  "units" : "m^2",
                  "value" : 15.286823896127903
               },
               {
                  "name" : "surface_285_c_tbd",
                  "units" : "m^2",
                  "value" : 13.517897663312816
               },
               {
                  "name" : "surface_286_c_tbd",
                  "units" : "m^2",
                  "value" : 15.283164038742193
               },
               {
                  "name" : "surface_287_c_tbd",
                  "units" : "m^2",
                  "value" : 45.321357264968981
               },
               {
                  "name" : "surface_289_c_tbd",
                  "units" : "m^2",
                  "value" : 16.027645403799035
               },
               {
                  "name" : "surface_290_c_tbd",
                  "units" : "m^2",
                  "value" : 14.288945294735399
               },
               {
                  "name" : "surface_291_c_tbd",
                  "units" : "m^2",
                  "value" : 16.135847205070689
               },
               {
                  "name" : "surface_292_c_tbd",
                  "units" : "m^2",
                  "value" : 14.288535614475762
               },
               {
                  "name" : "surface_293_c_tbd",
                  "units" : "m^2",
                  "value" : 50.477161252156563
               },
               {
                  "name" : "surface_295_c_tbd",
                  "units" : "m^2",
                  "value" : 14.228521610825368
               },
               {
                  "name" : "surface_296_c_tbd",
                  "units" : "m^2",
                  "value" : 15.546160093338605
               },
               {
                  "name" : "surface_297_c_tbd",
                  "units" : "m^2",
                  "value" : 14.204352443458095
               },
               {
                  "name" : "surface_298_c_tbd",
                  "units" : "m^2",
                  "value" : 15.653701896518891
               },
               {
                  "name" : "surface_299_c_tbd",
                  "units" : "m^2",
                  "value" : 48.71690082014581
               },
               {
                  "name" : "surface_3_c_tbd",
                  "units" : "m^2",
                  "value" : 14.288945294735399
               },
               {
                  "name" : "surface_30_c_tbd",
                  "units" : "m^2",
                  "value" : 15.286823896127903
               },
               {
                  "name" : "surface_301_c_tbd",
                  "units" : "m^2",
                  "value" : 17.029896357380338
               },
               {
                  "name" : "surface_302_c_tbd",
                  "units" : "m^2",
                  "value" : 20.10229557403639
               },
               {
                  "name" : "surface_303_c_tbd",
                  "units" : "m^2",
                  "value" : 7.2226312565639947
               },
               {
                  "name" : "surface_304_c_tbd",
                  "units" : "m^2",
                  "value" : 16.858194581384613
               },
               {
                  "name" : "surface_305_c_tbd",
                  "units" : "m^2",
                  "value" : 8.2561306859838268
               },
               {
                  "name" : "surface_306_c_tbd",
                  "units" : "m^2",
                  "value" : 19.851187324362535
               },
               {
                  "name" : "surface_307_c_tbd",
                  "units" : "m^2",
                  "value" : 104.46703060287606
               },
               {
                  "name" : "surface_309_c_tbd",
                  "units" : "m^2",
                  "value" : 16.728739793123005
               },
               {
                  "name" : "surface_31_c_tbd",
                  "units" : "m^2",
                  "value" : 13.517897663312816
               },
               {
                  "name" : "surface_310_c_tbd",
                  "units" : "m^2",
                  "value" : 15.653701896518838
               },
               {
                  "name" : "surface_311_c_tbd",
                  "units" : "m^2",
                  "value" : 4.6745155572459129
               },
               {
                  "name" : "surface_312_c_tbd",
                  "units" : "m^2",
                  "value" : 16.381076277619442
               },
               {
                  "name" : "surface_313_c_tbd",
                  "units" : "m^2",
                  "value" : 20.102295574036312
               },
               {
                  "name" : "surface_314_c_tbd",
                  "units" : "m^2",
                  "value" : 73.560270770263884
               },
               {
                  "name" : "surface_316_c_tbd",
                  "units" : "m^2",
                  "value" : 15.622289663873854
               },
               {
                  "name" : "surface_317_c_tbd",
                  "units" : "m^2",
                  "value" : 14.288535614475688
               },
               {
                  "name" : "surface_318_c_tbd",
                  "units" : "m^2",
                  "value" : 4.2671946678256027
               },
               {
                  "name" : "surface_319_c_tbd",
                  "units" : "m^2",
                  "value" : 13.477785009453818
               },
               {
                  "name" : "surface_320_c_tbd",
                  "units" : "m^2",
                  "value" : 16.433040268895656
               },
               {
                  "name" : "surface_321_c_tbd",
                  "units" : "m^2",
                  "value" : 17.161597831311479
               },
               {
                  "name" : "surface_322_c_tbd",
                  "units" : "m^2",
                  "value" : 17.161597831311571
               },
               {
                  "name" : "surface_323_c_tbd",
                  "units" : "m^2",
                  "value" : 13.670707977328451
               },
               {
                  "name" : "surface_324_c_tbd",
                  "units" : "m^2",
                  "value" : 4.2672000000000505
               },
               {
                  "name" : "surface_325_c_tbd",
                  "units" : "m^2",
                  "value" : 14.228521610825343
               },
               {
                  "name" : "surface_326_c_tbd",
                  "units" : "m^2",
                  "value" : 16.728739793122891
               },
               {
                  "name" : "surface_327_c_tbd",
                  "units" : "m^2",
                  "value" : 17.029896357380338
               },
               {
                  "name" : "surface_328_c_tbd",
                  "units" : "m^2",
                  "value" : 73.023302058141738
               },
               {
                  "name" : "surface_339_c_tbd",
                  "units" : "m^2",
                  "value" : 4.2672000000000505
               },
               {
                  "name" : "surface_340_c_tbd",
                  "units" : "m^2",
                  "value" : 4.2671946678256027
               },
               {
                  "name" : "surface_37_c_tbd",
                  "units" : "m^2",
                  "value" : 7.2226312565639947
               },
               {
                  "name" : "surface_38_c_tbd",
                  "units" : "m^2",
                  "value" : 16.858194581384613
               },
               {
                  "name" : "surface_39_c_tbd",
                  "units" : "m^2",
                  "value" : 8.2561306859838268
               },
               {
                  "name" : "surface_4_c_tbd",
                  "units" : "m^2",
                  "value" : 16.135847205070689
               },
               {
                  "name" : "surface_45_c_tbd",
                  "units" : "m^2",
                  "value" : 4.2882965216902695
               },
               {
                  "name" : "surface_46_c_tbd",
                  "units" : "m^2",
                  "value" : 16.382024715324409
               },
               {
                  "name" : "surface_52_c_tbd",
                  "units" : "m^2",
                  "value" : 17.161966212751061
               },
               {
                  "name" : "surface_58_c_tbd",
                  "units" : "m^2",
                  "value" : 4.6745155572459129
               },
               {
                  "name" : "surface_59_c_tbd",
                  "units" : "m^2",
                  "value" : 16.381076277619442
               },
               {
                  "name" : "surface_63_c_tbd",
                  "units" : "m^2",
                  "value" : 168.89682812034215
               },
               {
                  "name" : "surface_64_c_tbd",
                  "units" : "m^2",
                  "value" : 44.405088902926401
               },
               {
                  "name" : "surface_71_c_tbd",
                  "units" : "m^2",
                  "value" : 15.546160093338605
               },
               {
                  "name" : "surface_72_c_tbd",
                  "units" : "m^2",
                  "value" : 14.204352443458095
               },
               {
                  "name" : "surface_76_c_tbd",
                  "units" : "m^2",
                  "value" : 13.938961835176238
               },
               {
                  "name" : "surface_77_c_tbd",
                  "units" : "m^2",
                  "value" : 15.546160093338564
               },
               {
                  "name" : "surface_84_c_tbd",
                  "units" : "m^2",
                  "value" : 7.2226312565639947
               },
               {
                  "name" : "surface_85_c_tbd",
                  "units" : "m^2",
                  "value" : 16.858194581384613
               },
               {
                  "name" : "surface_86_c_tbd",
                  "units" : "m^2",
                  "value" : 8.2561306859838268
               },
               {
                  "name" : "surface_91_c_tbd",
                  "units" : "m^2",
                  "value" : 15.286823896127903
               },
               {
                  "name" : "surface_92_c_tbd",
                  "units" : "m^2",
                  "value" : 13.517897663312816
               },
               {
                  "name" : "surface_96_c_tbd",
                  "units" : "m^2",
                  "value" : 15.581000932263619
               },
               {
                  "name" : "surface_97_c_tbd",
                  "units" : "m^2",
                  "value" : 4.674858473554047
               },
               {
                  "name" : "typical_iead_roof_pre_1980",
                  "units" : "m^2",
                  "value" : 1471.8762012667557
               },
               {
                  "name" : "customized_fenestration_u_3_36",
                  "units" : "m^2",
                  "value" : 5119.1109077738101
               },
               {
                  "name" : "gross_window_wall_ratio",
                  "units" : "%",
                  "value" : 30.0
               },
               {
                  "name" : "gross_window_wall_ratio_conditioned",
                  "units" : "%",
                  "value" : 30.0
               },
               {
                  "name" : "skylight_roof_ratio",
                  "units" : "%",
                  "value" : 0.0
               },
               {
                  "name" : "space_type_murb_large",
                  "units" : "m^2",
                  "value" : 7215.4324102899818
               },
               {
                  "name" : "space_type_murb_lobby",
                  "units" : "m^2",
                  "value" : 50.477161252156556
               },
               {
                  "name" : "space_type_murb_lobby_1",
                  "units" : "m^2",
                  "value" : 73.023302058141724
               },
               {
                  "name" : "space_type_murb_lobby_2",
                  "units" : "m^2",
                  "value" : 730.23302058141724
               },
               {
                  "name" : "space_type_murb_lobby_3",
                  "units" : "m^2",
                  "value" : 73.023302058141724
               },
               {
                  "name" : "space_type_murb_small",
                  "units" : "m^2",
                  "value" : 47.016274159944771
               },
               {
                  "name" : "space_type_murb_small_1",
                  "units" : "m^2",
                  "value" : 45.321357264968981
               },
               {
                  "name" : "space_type_murb_small_2",
                  "units" : "m^2",
                  "value" : 50.477161252156556
               },
               {
                  "name" : "space_type_murb_small_3",
                  "units" : "m^2",
                  "value" : 48.71690082014581
               },
               {
                  "name" : "space_type_murb_small_4",
                  "units" : "m^2",
                  "value" : 504.77161252156554
               },
               {
                  "name" : "space_type_murb_small_5",
                  "units" : "m^2",
                  "value" : 453.21357264968981
               },
               {
                  "name" : "space_type_murb_small_6",
                  "units" : "m^2",
                  "value" : 470.16274159944771
               },
               {
                  "name" : "space_type_murb_small_7",
                  "units" : "m^2",
                  "value" : 487.1690082014581
               },
               {
                  "name" : "estar_mfhr_whole_building_water_use_equipment",
                  "units" : "m^3/h",
                  "value" : 1.4400000000000002
               },
               {
                  "name" : "water_use_equipment_1",
                  "units" : "m^3/h",
                  "value" : 0.36000000000000004
               },
               {
                  "name" : "zone_max_hours_over_70_rh",
                  "units" : "hr",
                  "value" : 34.0
               },
               {
                  "name" : "zone_max_hours_over_55_rh",
                  "units" : "hr",
                  "value" : 729.0
               },
               {
                  "name" : "num_zones_x_hours_over_70",
                  "units" : "zones",
                  "value" : 29
               },
               {
                  "name" : "num_zones_x_hours_over_55",
                  "units" : "zones",
                  "value" : 44
               },
               {
                  "name" : "inflation_approach",
                  "value" : "Constant Dollar"
               },
               {
                  "name" : "analysis_length",
                  "units" : "yrs",
                  "value" : 25
               },
               {
                  "name" : "number_of_measures_with_warnings",
                  "value" : 2
               },
               {
                  "name" : "number_warnings",
                  "value" : 44
               },
               {
                  "name" : "annual_peak_electric_demand",
                  "units" : "kW",
                  "value" : 1502.79988
               },
               {
                  "name" : "first_year_capital_cost",
                  "units" : "$",
                  "value" : 0.0
               },
               {
                  "name" : "annual_utility_cost",
                  "units" : "$",
                  "value" : 0.0
               },
               {
                  "name" : "total_lifecycle_cost",
                  "units" : "$",
                  "value" : 0.0
               }
            ],
            "step_warnings" : []
         }
      }
   ],
   "updated_at" : "20240717T105846Z",
   "weather_file" : "CAN_PQ_Montreal.Intl.AP.716270_CWEC.epw"
}